
---------- Begin Simulation Statistics ----------
simSeconds                                   0.004016                       # Number of seconds simulated (Second)
simTicks                                   4016479000                       # Number of ticks simulated (Tick)
finalTick                                  4016479000                       # Number of ticks from beginning of simulation (restored from checkpoints and never reset) (Tick)
simFreq                                  1000000000000                       # The number of ticks per simulated second ((Tick/Second))
hostSeconds                                     18.16                       # Real time elapsed on the host (Second)
hostTickRate                                221145742                       # The number of ticks simulated per host second (ticks/s) ((Tick/Second))
hostMemory                                    8536476                       # Number of bytes of host memory used (Byte)
simInsts                                      6794063                       # Number of instructions simulated (Count)
simOps                                        6918279                       # Number of ops (including micro ops) simulated (Count)
hostInstRate                                   374070                       # Simulator instruction rate (inst/s) ((Count/Second))
hostOpRate                                     380908                       # Simulator op (including micro ops) rate (op/s) ((Count/Second))
board.cache_hierarchy.membus.transDist::ReadResp        46088                       # Transaction distribution (Count)
board.cache_hierarchy.membus.transDist::WritebackDirty         4023                       # Transaction distribution (Count)
board.cache_hierarchy.membus.transDist::CleanEvict        44441                       # Transaction distribution (Count)
board.cache_hierarchy.membus.transDist::ReadExReq         3452                       # Transaction distribution (Count)
board.cache_hierarchy.membus.transDist::ReadExResp         3452                       # Transaction distribution (Count)
board.cache_hierarchy.membus.transDist::ReadSharedReq        46089                       # Transaction distribution (Count)
board.cache_hierarchy.membus.transDist::InvalidateReq           24                       # Transaction distribution (Count)
board.cache_hierarchy.membus.pktCount_board.processor.cores.l2.mem_side_port::board.memory.mem_ctrl.port       147569                       # Packet count per connected requestor and responder (Count)
board.cache_hierarchy.membus.pktCount::total       147569                       # Packet count per connected requestor and responder (Count)
board.cache_hierarchy.membus.pktSize_board.processor.cores.l2.mem_side_port::board.memory.mem_ctrl.port      1714016                       # Cumulative packet size per connected requestor and responder (Byte)
board.cache_hierarchy.membus.pktSize::total      1714016                       # Cumulative packet size per connected requestor and responder (Byte)
board.cache_hierarchy.membus.snoops                 0                       # Total snoops (Count)
board.cache_hierarchy.membus.snoopTraffic            0                       # Total snoop traffic (Byte)
board.cache_hierarchy.membus.snoopFanout::samples        49565                       # Request fanout histogram (Count)
board.cache_hierarchy.membus.snoopFanout::mean            0                       # Request fanout histogram (Count)
board.cache_hierarchy.membus.snoopFanout::stdev            0                       # Request fanout histogram (Count)
board.cache_hierarchy.membus.snoopFanout::underflows            0      0.00%      0.00% # Request fanout histogram (Count)
board.cache_hierarchy.membus.snoopFanout::0        49565    100.00%    100.00% # Request fanout histogram (Count)
board.cache_hierarchy.membus.snoopFanout::1            0      0.00%    100.00% # Request fanout histogram (Count)
board.cache_hierarchy.membus.snoopFanout::2            0      0.00%    100.00% # Request fanout histogram (Count)
board.cache_hierarchy.membus.snoopFanout::overflows            0      0.00%    100.00% # Request fanout histogram (Count)
board.cache_hierarchy.membus.snoopFanout::min_value            0                       # Request fanout histogram (Count)
board.cache_hierarchy.membus.snoopFanout::max_value            0                       # Request fanout histogram (Count)
board.cache_hierarchy.membus.snoopFanout::total        49565                       # Request fanout histogram (Count)
board.cache_hierarchy.membus.power_state.pwrStateResidencyTicks::UNDEFINED   4016479000                       # Cumulative time (in ticks) in various power states (Tick)
board.cache_hierarchy.membus.reqLayer0.occupancy    106525374                       # Layer occupancy (ticks) (Tick)
board.cache_hierarchy.membus.reqLayer0.utilization          0.0                       # Layer utilization (Ratio)
board.cache_hierarchy.membus.respLayer1.occupancy    161636410                       # Layer occupancy (ticks) (Tick)
board.cache_hierarchy.membus.respLayer1.utilization          0.0                       # Layer utilization (Ratio)
board.cache_hierarchy.membus.snoop_filter.totRequests        98029                       # Total number of requests made to the snoop filter. (Count)
board.cache_hierarchy.membus.snoop_filter.hitSingleRequests        48468                       # Number of requests hitting in the snoop filter with a single holder of the requested data. (Count)
board.cache_hierarchy.membus.snoop_filter.hitMultiRequests            0                       # Number of requests hitting in the snoop filter with multiple (>1) holders of the requested data. (Count)
board.cache_hierarchy.membus.snoop_filter.totSnoops            0                       # Total number of snoops made to the snoop filter. (Count)
board.cache_hierarchy.membus.snoop_filter.hitSingleSnoops            0                       # Number of snoops hitting in the snoop filter with a single holder of the requested data. (Count)
board.cache_hierarchy.membus.snoop_filter.hitMultiSnoops            0                       # Number of snoops hitting in the snoop filter with multiple (>1) holders of the requested data. (Count)
board.clk_domain.clock                           1000                       # Clock period in ticks (Tick)
board.clk_domain.voltage_domain.voltage             1                       # Voltage in Volts (Volt)
board.memory.mem_ctrl.avgPriority_writebacks::samples      1293.00                       # Average QoS priority value for accepted requests (Count)
board.memory.mem_ctrl.avgPriority_processor.cores.core.inst::samples       957.00                       # Average QoS priority value for accepted requests (Count)
board.memory.mem_ctrl.avgPriority_processor.cores.core.data::samples     14839.00                       # Average QoS priority value for accepted requests (Count)
board.memory.mem_ctrl.avgPriority_processor.cores.l1d.prefetcher::samples     28588.00                       # Average QoS priority value for accepted requests (Count)
board.memory.mem_ctrl.avgPriority_processor.cores.l2.prefetcher::samples      1850.00                       # Average QoS priority value for accepted requests (Count)
board.memory.mem_ctrl.priorityMinLatency 0.000000018750                       # per QoS priority minimum request to response latency (Second)
board.memory.mem_ctrl.priorityMaxLatency 0.001371190500                       # per QoS priority maximum request to response latency (Second)
board.memory.mem_ctrl.numReadWriteTurnArounds           74                       # Number of turnarounds from READ to WRITE (Count)
board.memory.mem_ctrl.numWriteReadTurnArounds           74                       # Number of turnarounds from WRITE to READ (Count)
board.memory.mem_ctrl.numStayReadState          94977                       # Number of times bus staying in READ state (Count)
board.memory.mem_ctrl.numStayWriteState          1202                       # Number of times bus staying in WRITE state (Count)
board.memory.mem_ctrl.readReqs                  49541                       # Number of read requests accepted (Count)
board.memory.mem_ctrl.writeReqs                  4023                       # Number of write requests accepted (Count)
board.memory.mem_ctrl.readBursts                49541                       # Number of controller read bursts, including those serviced by the write queue (Count)
board.memory.mem_ctrl.writeBursts                4023                       # Number of controller write bursts, including those merged in the write queue (Count)
board.memory.mem_ctrl.servicedByWrQ              3307                       # Number of controller read bursts serviced by the write queue (Count)
board.memory.mem_ctrl.mergedWrBursts             2730                       # Number of controller write bursts merged with an existing one (Count)
board.memory.mem_ctrl.neitherReadNorWriteReqs            0                       # Number of requests that are neither read nor write (Count)
board.memory.mem_ctrl.avgRdQLen                  1.68                       # Average read queue length when enqueuing ((Count/Tick))
board.memory.mem_ctrl.avgWrQLen                 25.48                       # Average write queue length when enqueuing ((Count/Tick))
board.memory.mem_ctrl.numRdRetry                    0                       # Number of times read queue was full causing retry (Count)
board.memory.mem_ctrl.numWrRetry                    0                       # Number of times write queue was full causing retry (Count)
board.memory.mem_ctrl.readPktSize::0                0                       # Read request sizes (log2) (Count)
board.memory.mem_ctrl.readPktSize::1                0                       # Read request sizes (log2) (Count)
board.memory.mem_ctrl.readPktSize::2                0                       # Read request sizes (log2) (Count)
board.memory.mem_ctrl.readPktSize::3                0                       # Read request sizes (log2) (Count)
board.memory.mem_ctrl.readPktSize::4                0                       # Read request sizes (log2) (Count)
board.memory.mem_ctrl.readPktSize::5            49541                       # Read request sizes (log2) (Count)
board.memory.mem_ctrl.writePktSize::0               0                       # Write request sizes (log2) (Count)
board.memory.mem_ctrl.writePktSize::1               0                       # Write request sizes (log2) (Count)
board.memory.mem_ctrl.writePktSize::2               0                       # Write request sizes (log2) (Count)
board.memory.mem_ctrl.writePktSize::3               0                       # Write request sizes (log2) (Count)
board.memory.mem_ctrl.writePktSize::4               0                       # Write request sizes (log2) (Count)
board.memory.mem_ctrl.writePktSize::5            4023                       # Write request sizes (log2) (Count)
board.memory.mem_ctrl.rdQLenPdf::0              21833                       # What read queue length does an incoming req see (Count)
board.memory.mem_ctrl.rdQLenPdf::1               8501                       # What read queue length does an incoming req see (Count)
board.memory.mem_ctrl.rdQLenPdf::2               7093                       # What read queue length does an incoming req see (Count)
board.memory.mem_ctrl.rdQLenPdf::3               6240                       # What read queue length does an incoming req see (Count)
board.memory.mem_ctrl.rdQLenPdf::4               1614                       # What read queue length does an incoming req see (Count)
board.memory.mem_ctrl.rdQLenPdf::5                379                       # What read queue length does an incoming req see (Count)
board.memory.mem_ctrl.rdQLenPdf::6                189                       # What read queue length does an incoming req see (Count)
board.memory.mem_ctrl.rdQLenPdf::7                127                       # What read queue length does an incoming req see (Count)
board.memory.mem_ctrl.rdQLenPdf::8                102                       # What read queue length does an incoming req see (Count)
board.memory.mem_ctrl.rdQLenPdf::9                 71                       # What read queue length does an incoming req see (Count)
board.memory.mem_ctrl.rdQLenPdf::10                29                       # What read queue length does an incoming req see (Count)
board.memory.mem_ctrl.rdQLenPdf::11                14                       # What read queue length does an incoming req see (Count)
board.memory.mem_ctrl.rdQLenPdf::12                13                       # What read queue length does an incoming req see (Count)
board.memory.mem_ctrl.rdQLenPdf::13                12                       # What read queue length does an incoming req see (Count)
board.memory.mem_ctrl.rdQLenPdf::14                 6                       # What read queue length does an incoming req see (Count)
board.memory.mem_ctrl.rdQLenPdf::15                 4                       # What read queue length does an incoming req see (Count)
board.memory.mem_ctrl.rdQLenPdf::16                 4                       # What read queue length does an incoming req see (Count)
board.memory.mem_ctrl.rdQLenPdf::17                 3                       # What read queue length does an incoming req see (Count)
board.memory.mem_ctrl.rdQLenPdf::18                 0                       # What read queue length does an incoming req see (Count)
board.memory.mem_ctrl.rdQLenPdf::19                 0                       # What read queue length does an incoming req see (Count)
board.memory.mem_ctrl.rdQLenPdf::20                 0                       # What read queue length does an incoming req see (Count)
board.memory.mem_ctrl.rdQLenPdf::21                 0                       # What read queue length does an incoming req see (Count)
board.memory.mem_ctrl.rdQLenPdf::22                 0                       # What read queue length does an incoming req see (Count)
board.memory.mem_ctrl.rdQLenPdf::23                 0                       # What read queue length does an incoming req see (Count)
board.memory.mem_ctrl.rdQLenPdf::24                 0                       # What read queue length does an incoming req see (Count)
board.memory.mem_ctrl.rdQLenPdf::25                 0                       # What read queue length does an incoming req see (Count)
board.memory.mem_ctrl.rdQLenPdf::26                 0                       # What read queue length does an incoming req see (Count)
board.memory.mem_ctrl.rdQLenPdf::27                 0                       # What read queue length does an incoming req see (Count)
board.memory.mem_ctrl.rdQLenPdf::28                 0                       # What read queue length does an incoming req see (Count)
board.memory.mem_ctrl.rdQLenPdf::29                 0                       # What read queue length does an incoming req see (Count)
board.memory.mem_ctrl.rdQLenPdf::30                 0                       # What read queue length does an incoming req see (Count)
board.memory.mem_ctrl.rdQLenPdf::31                 0                       # What read queue length does an incoming req see (Count)
board.memory.mem_ctrl.wrQLenPdf::0                  1                       # What write queue length does an incoming req see (Count)
board.memory.mem_ctrl.wrQLenPdf::1                  1                       # What write queue length does an incoming req see (Count)
board.memory.mem_ctrl.wrQLenPdf::2                  1                       # What write queue length does an incoming req see (Count)
board.memory.mem_ctrl.wrQLenPdf::3                  1                       # What write queue length does an incoming req see (Count)
board.memory.mem_ctrl.wrQLenPdf::4                  1                       # What write queue length does an incoming req see (Count)
board.memory.mem_ctrl.wrQLenPdf::5                  1                       # What write queue length does an incoming req see (Count)
board.memory.mem_ctrl.wrQLenPdf::6                  1                       # What write queue length does an incoming req see (Count)
board.memory.mem_ctrl.wrQLenPdf::7                  1                       # What write queue length does an incoming req see (Count)
board.memory.mem_ctrl.wrQLenPdf::8                  1                       # What write queue length does an incoming req see (Count)
board.memory.mem_ctrl.wrQLenPdf::9                  1                       # What write queue length does an incoming req see (Count)
board.memory.mem_ctrl.wrQLenPdf::10                 1                       # What write queue length does an incoming req see (Count)
board.memory.mem_ctrl.wrQLenPdf::11                 1                       # What write queue length does an incoming req see (Count)
board.memory.mem_ctrl.wrQLenPdf::12                 1                       # What write queue length does an incoming req see (Count)
board.memory.mem_ctrl.wrQLenPdf::13                 1                       # What write queue length does an incoming req see (Count)
board.memory.mem_ctrl.wrQLenPdf::14                 1                       # What write queue length does an incoming req see (Count)
board.memory.mem_ctrl.wrQLenPdf::15                30                       # What write queue length does an incoming req see (Count)
board.memory.mem_ctrl.wrQLenPdf::16                35                       # What write queue length does an incoming req see (Count)
board.memory.mem_ctrl.wrQLenPdf::17                59                       # What write queue length does an incoming req see (Count)
board.memory.mem_ctrl.wrQLenPdf::18                70                       # What write queue length does an incoming req see (Count)
board.memory.mem_ctrl.wrQLenPdf::19                73                       # What write queue length does an incoming req see (Count)
board.memory.mem_ctrl.wrQLenPdf::20                73                       # What write queue length does an incoming req see (Count)
board.memory.mem_ctrl.wrQLenPdf::21                81                       # What write queue length does an incoming req see (Count)
board.memory.mem_ctrl.wrQLenPdf::22                83                       # What write queue length does an incoming req see (Count)
board.memory.mem_ctrl.wrQLenPdf::23                75                       # What write queue length does an incoming req see (Count)
board.memory.mem_ctrl.wrQLenPdf::24                80                       # What write queue length does an incoming req see (Count)
board.memory.mem_ctrl.wrQLenPdf::25                84                       # What write queue length does an incoming req see (Count)
board.memory.mem_ctrl.wrQLenPdf::26                81                       # What write queue length does an incoming req see (Count)
board.memory.mem_ctrl.wrQLenPdf::27                78                       # What write queue length does an incoming req see (Count)
board.memory.mem_ctrl.wrQLenPdf::28                75                       # What write queue length does an incoming req see (Count)
board.memory.mem_ctrl.wrQLenPdf::29                77                       # What write queue length does an incoming req see (Count)
board.memory.mem_ctrl.wrQLenPdf::30                76                       # What write queue length does an incoming req see (Count)
board.memory.mem_ctrl.wrQLenPdf::31                74                       # What write queue length does an incoming req see (Count)
board.memory.mem_ctrl.wrQLenPdf::32                74                       # What write queue length does an incoming req see (Count)
board.memory.mem_ctrl.wrQLenPdf::33                 0                       # What write queue length does an incoming req see (Count)
board.memory.mem_ctrl.wrQLenPdf::34                 0                       # What write queue length does an incoming req see (Count)
board.memory.mem_ctrl.wrQLenPdf::35                 0                       # What write queue length does an incoming req see (Count)
board.memory.mem_ctrl.wrQLenPdf::36                 0                       # What write queue length does an incoming req see (Count)
board.memory.mem_ctrl.wrQLenPdf::37                 0                       # What write queue length does an incoming req see (Count)
board.memory.mem_ctrl.wrQLenPdf::38                 0                       # What write queue length does an incoming req see (Count)
board.memory.mem_ctrl.wrQLenPdf::39                 0                       # What write queue length does an incoming req see (Count)
board.memory.mem_ctrl.wrQLenPdf::40                 0                       # What write queue length does an incoming req see (Count)
board.memory.mem_ctrl.wrQLenPdf::41                 0                       # What write queue length does an incoming req see (Count)
board.memory.mem_ctrl.wrQLenPdf::42                 0                       # What write queue length does an incoming req see (Count)
board.memory.mem_ctrl.wrQLenPdf::43                 0                       # What write queue length does an incoming req see (Count)
board.memory.mem_ctrl.wrQLenPdf::44                 0                       # What write queue length does an incoming req see (Count)
board.memory.mem_ctrl.wrQLenPdf::45                 0                       # What write queue length does an incoming req see (Count)
board.memory.mem_ctrl.wrQLenPdf::46                 0                       # What write queue length does an incoming req see (Count)
board.memory.mem_ctrl.wrQLenPdf::47                 0                       # What write queue length does an incoming req see (Count)
board.memory.mem_ctrl.wrQLenPdf::48                 0                       # What write queue length does an incoming req see (Count)
board.memory.mem_ctrl.wrQLenPdf::49                 0                       # What write queue length does an incoming req see (Count)
board.memory.mem_ctrl.wrQLenPdf::50                 0                       # What write queue length does an incoming req see (Count)
board.memory.mem_ctrl.wrQLenPdf::51                 0                       # What write queue length does an incoming req see (Count)
board.memory.mem_ctrl.wrQLenPdf::52                 0                       # What write queue length does an incoming req see (Count)
board.memory.mem_ctrl.wrQLenPdf::53                 0                       # What write queue length does an incoming req see (Count)
board.memory.mem_ctrl.wrQLenPdf::54                 0                       # What write queue length does an incoming req see (Count)
board.memory.mem_ctrl.wrQLenPdf::55                 0                       # What write queue length does an incoming req see (Count)
board.memory.mem_ctrl.wrQLenPdf::56                 0                       # What write queue length does an incoming req see (Count)
board.memory.mem_ctrl.wrQLenPdf::57                 0                       # What write queue length does an incoming req see (Count)
board.memory.mem_ctrl.wrQLenPdf::58                 0                       # What write queue length does an incoming req see (Count)
board.memory.mem_ctrl.wrQLenPdf::59                 0                       # What write queue length does an incoming req see (Count)
board.memory.mem_ctrl.wrQLenPdf::60                 0                       # What write queue length does an incoming req see (Count)
board.memory.mem_ctrl.wrQLenPdf::61                 0                       # What write queue length does an incoming req see (Count)
board.memory.mem_ctrl.wrQLenPdf::62                 0                       # What write queue length does an incoming req see (Count)
board.memory.mem_ctrl.wrQLenPdf::63                 0                       # What write queue length does an incoming req see (Count)
board.memory.mem_ctrl.rdPerTurnAround::samples           74                       # Reads before turning the bus around for writes (Count)
board.memory.mem_ctrl.rdPerTurnAround::mean   624.648649                       # Reads before turning the bus around for writes (Count)
board.memory.mem_ctrl.rdPerTurnAround::gmean   292.201307                       # Reads before turning the bus around for writes (Count)
board.memory.mem_ctrl.rdPerTurnAround::stdev   458.145381                       # Reads before turning the bus around for writes (Count)
board.memory.mem_ctrl.rdPerTurnAround::0-63           19     25.68%     25.68% # Reads before turning the bus around for writes (Count)
board.memory.mem_ctrl.rdPerTurnAround::64-127            2      2.70%     28.38% # Reads before turning the bus around for writes (Count)
board.memory.mem_ctrl.rdPerTurnAround::192-255            1      1.35%     29.73% # Reads before turning the bus around for writes (Count)
board.memory.mem_ctrl.rdPerTurnAround::256-319            1      1.35%     31.08% # Reads before turning the bus around for writes (Count)
board.memory.mem_ctrl.rdPerTurnAround::512-575            5      6.76%     37.84% # Reads before turning the bus around for writes (Count)
board.memory.mem_ctrl.rdPerTurnAround::576-639            3      4.05%     41.89% # Reads before turning the bus around for writes (Count)
board.memory.mem_ctrl.rdPerTurnAround::640-703            4      5.41%     47.30% # Reads before turning the bus around for writes (Count)
board.memory.mem_ctrl.rdPerTurnAround::704-767            6      8.11%     55.41% # Reads before turning the bus around for writes (Count)
board.memory.mem_ctrl.rdPerTurnAround::768-831           10     13.51%     68.92% # Reads before turning the bus around for writes (Count)
board.memory.mem_ctrl.rdPerTurnAround::832-895            4      5.41%     74.32% # Reads before turning the bus around for writes (Count)
board.memory.mem_ctrl.rdPerTurnAround::896-959            6      8.11%     82.43% # Reads before turning the bus around for writes (Count)
board.memory.mem_ctrl.rdPerTurnAround::960-1023            4      5.41%     87.84% # Reads before turning the bus around for writes (Count)
board.memory.mem_ctrl.rdPerTurnAround::1024-1087            1      1.35%     89.19% # Reads before turning the bus around for writes (Count)
board.memory.mem_ctrl.rdPerTurnAround::1088-1151            1      1.35%     90.54% # Reads before turning the bus around for writes (Count)
board.memory.mem_ctrl.rdPerTurnAround::1152-1215            1      1.35%     91.89% # Reads before turning the bus around for writes (Count)
board.memory.mem_ctrl.rdPerTurnAround::1280-1343            1      1.35%     93.24% # Reads before turning the bus around for writes (Count)
board.memory.mem_ctrl.rdPerTurnAround::1344-1407            1      1.35%     94.59% # Reads before turning the bus around for writes (Count)
board.memory.mem_ctrl.rdPerTurnAround::1600-1663            3      4.05%     98.65% # Reads before turning the bus around for writes (Count)
board.memory.mem_ctrl.rdPerTurnAround::1664-1727            1      1.35%    100.00% # Reads before turning the bus around for writes (Count)
board.memory.mem_ctrl.rdPerTurnAround::total           74                       # Reads before turning the bus around for writes (Count)
board.memory.mem_ctrl.wrPerTurnAround::samples           74                       # Writes before turning the bus around for reads (Count)
board.memory.mem_ctrl.wrPerTurnAround::mean    17.162162                       # Writes before turning the bus around for reads (Count)
board.memory.mem_ctrl.wrPerTurnAround::gmean    17.113202                       # Writes before turning the bus around for reads (Count)
board.memory.mem_ctrl.wrPerTurnAround::stdev     1.324449                       # Writes before turning the bus around for reads (Count)
board.memory.mem_ctrl.wrPerTurnAround::16           38     51.35%     51.35% # Writes before turning the bus around for reads (Count)
board.memory.mem_ctrl.wrPerTurnAround::17            2      2.70%     54.05% # Writes before turning the bus around for reads (Count)
board.memory.mem_ctrl.wrPerTurnAround::18           22     29.73%     83.78% # Writes before turning the bus around for reads (Count)
board.memory.mem_ctrl.wrPerTurnAround::19            9     12.16%     95.95% # Writes before turning the bus around for reads (Count)
board.memory.mem_ctrl.wrPerTurnAround::20            2      2.70%     98.65% # Writes before turning the bus around for reads (Count)
board.memory.mem_ctrl.wrPerTurnAround::21            1      1.35%    100.00% # Writes before turning the bus around for reads (Count)
board.memory.mem_ctrl.wrPerTurnAround::total           74                       # Writes before turning the bus around for reads (Count)
board.memory.mem_ctrl.bytesReadWrQ             211648                       # Total number of bytes read from write queue (Byte)
board.memory.mem_ctrl.bytesReadSys            1585312                       # Total read bytes from the system interface side (Byte)
board.memory.mem_ctrl.bytesWrittenSys          128736                       # Total written bytes from the system interface side (Byte)
board.memory.mem_ctrl.avgRdBWSys         394701926.73732394                       # Average system read bandwidth in Byte/s ((Byte/Second))
board.memory.mem_ctrl.avgWrBWSys         32051953.96266232                       # Average system write bandwidth in Byte/s ((Byte/Second))
board.memory.mem_ctrl.totGap               4016458000                       # Total gap between requests (Tick)
board.memory.mem_ctrl.avgGap                 74984.28                       # Average gap between requests ((Tick/Count))
board.memory.mem_ctrl.requestorReadBytes::processor.cores.core.inst        30624                       # Per-requestor bytes read from memory (Byte)
board.memory.mem_ctrl.requestorReadBytes::processor.cores.core.data       474848                       # Per-requestor bytes read from memory (Byte)
board.memory.mem_ctrl.requestorReadBytes::processor.cores.l1d.prefetcher       914816                       # Per-requestor bytes read from memory (Byte)
board.memory.mem_ctrl.requestorReadBytes::processor.cores.l2.prefetcher        59200                       # Per-requestor bytes read from memory (Byte)
board.memory.mem_ctrl.requestorWriteBytes::writebacks        40640                       # Per-requestor bytes write to memory (Byte)
board.memory.mem_ctrl.requestorReadRate::processor.cores.core.inst 7624588.601110574789                       # Per-requestor bytes read from memory rate ((Byte/Second))
board.memory.mem_ctrl.requestorReadRate::processor.cores.core.data 118224942.791932940483                       # Per-requestor bytes read from memory rate ((Byte/Second))
board.memory.mem_ctrl.requestorReadRate::processor.cores.l1d.prefetcher 227765662.412277042866                       # Per-requestor bytes read from memory rate ((Byte/Second))
board.memory.mem_ctrl.requestorReadRate::processor.cores.l2.prefetcher 14739277.860036116093                       # Per-requestor bytes read from memory rate ((Byte/Second))
board.memory.mem_ctrl.requestorWriteRate::writebacks 10118315.071484252810                       # Per-requestor bytes write to memory rate ((Byte/Second))
board.memory.mem_ctrl.requestorReadAccesses::processor.cores.core.inst          957                       # Per-requestor read serviced memory accesses (Count)
board.memory.mem_ctrl.requestorReadAccesses::processor.cores.core.data        16430                       # Per-requestor read serviced memory accesses (Count)
board.memory.mem_ctrl.requestorReadAccesses::processor.cores.l1d.prefetcher        30012                       # Per-requestor read serviced memory accesses (Count)
board.memory.mem_ctrl.requestorReadAccesses::processor.cores.l2.prefetcher         2142                       # Per-requestor read serviced memory accesses (Count)
board.memory.mem_ctrl.requestorWriteAccesses::writebacks         4023                       # Per-requestor write serviced memory accesses (Count)
board.memory.mem_ctrl.requestorReadTotalLat::processor.cores.core.inst     28696000                       # Per-requestor read total memory access latency (Tick)
board.memory.mem_ctrl.requestorReadTotalLat::processor.cores.core.data    360543576                       # Per-requestor read total memory access latency (Tick)
board.memory.mem_ctrl.requestorReadTotalLat::processor.cores.l1d.prefetcher    940720069                       # Per-requestor read total memory access latency (Tick)
board.memory.mem_ctrl.requestorReadTotalLat::processor.cores.l2.prefetcher     57146197                       # Per-requestor read total memory access latency (Tick)
board.memory.mem_ctrl.requestorWriteTotalLat::writebacks  95253099000                       # Per-requestor write total memory access latency (Tick)
board.memory.mem_ctrl.requestorReadAvgLat::processor.cores.core.inst     29985.37                       # Per-requestor read average memory access latency ((Tick/Count))
board.memory.mem_ctrl.requestorReadAvgLat::processor.cores.core.data     21944.22                       # Per-requestor read average memory access latency ((Tick/Count))
board.memory.mem_ctrl.requestorReadAvgLat::processor.cores.l1d.prefetcher     31344.80                       # Per-requestor read average memory access latency ((Tick/Count))
board.memory.mem_ctrl.requestorReadAvgLat::processor.cores.l2.prefetcher     26678.90                       # Per-requestor read average memory access latency ((Tick/Count))
board.memory.mem_ctrl.requestorWriteAvgLat::writebacks  23677131.25                       # Per-requestor write average memory access latency ((Tick/Count))
board.memory.mem_ctrl.dram.bytesRead::processor.cores.core.inst        30592                       # Number of bytes read from this memory (Byte)
board.memory.mem_ctrl.dram.bytesRead::processor.cores.core.data       525760                       # Number of bytes read from this memory (Byte)
board.memory.mem_ctrl.dram.bytesRead::processor.cores.l1d.prefetcher       960384                       # Number of bytes read from this memory (Byte)
board.memory.mem_ctrl.dram.bytesRead::processor.cores.l2.prefetcher        68544                       # Number of bytes read from this memory (Byte)
board.memory.mem_ctrl.dram.bytesRead::total      1585280                       # Number of bytes read from this memory (Byte)
board.memory.mem_ctrl.dram.bytesInstRead::processor.cores.core.inst        30592                       # Number of instructions bytes read from this memory (Byte)
board.memory.mem_ctrl.dram.bytesInstRead::total        30592                       # Number of instructions bytes read from this memory (Byte)
board.memory.mem_ctrl.dram.bytesWritten::writebacks       128736                       # Number of bytes written to this memory (Byte)
board.memory.mem_ctrl.dram.bytesWritten::total       128736                       # Number of bytes written to this memory (Byte)
board.memory.mem_ctrl.dram.numReads::processor.cores.core.inst          956                       # Number of read requests responded to by this memory (Count)
board.memory.mem_ctrl.dram.numReads::processor.cores.core.data        16430                       # Number of read requests responded to by this memory (Count)
board.memory.mem_ctrl.dram.numReads::processor.cores.l1d.prefetcher        30012                       # Number of read requests responded to by this memory (Count)
board.memory.mem_ctrl.dram.numReads::processor.cores.l2.prefetcher         2142                       # Number of read requests responded to by this memory (Count)
board.memory.mem_ctrl.dram.numReads::total        49540                       # Number of read requests responded to by this memory (Count)
board.memory.mem_ctrl.dram.numWrites::writebacks         4023                       # Number of write requests responded to by this memory (Count)
board.memory.mem_ctrl.dram.numWrites::total         4023                       # Number of write requests responded to by this memory (Count)
board.memory.mem_ctrl.dram.bwRead::processor.cores.core.inst      7616621                       # Total read bandwidth from this memory ((Byte/Second))
board.memory.mem_ctrl.dram.bwRead::processor.cores.core.data    130900722                       # Total read bandwidth from this memory ((Byte/Second))
board.memory.mem_ctrl.dram.bwRead::processor.cores.l1d.prefetcher    239110923                       # Total read bandwidth from this memory ((Byte/Second))
board.memory.mem_ctrl.dram.bwRead::processor.cores.l2.prefetcher     17065694                       # Total read bandwidth from this memory ((Byte/Second))
board.memory.mem_ctrl.dram.bwRead::total    394693960                       # Total read bandwidth from this memory ((Byte/Second))
board.memory.mem_ctrl.dram.bwInstRead::processor.cores.core.inst      7616621                       # Instruction read bandwidth from this memory ((Byte/Second))
board.memory.mem_ctrl.dram.bwInstRead::total      7616621                       # Instruction read bandwidth from this memory ((Byte/Second))
board.memory.mem_ctrl.dram.bwWrite::writebacks     32051954                       # Write bandwidth from this memory ((Byte/Second))
board.memory.mem_ctrl.dram.bwWrite::total     32051954                       # Write bandwidth from this memory ((Byte/Second))
board.memory.mem_ctrl.dram.bwTotal::writebacks     32051954                       # Total bandwidth to/from this memory ((Byte/Second))
board.memory.mem_ctrl.dram.bwTotal::processor.cores.core.inst      7616621                       # Total bandwidth to/from this memory ((Byte/Second))
board.memory.mem_ctrl.dram.bwTotal::processor.cores.core.data    130900722                       # Total bandwidth to/from this memory ((Byte/Second))
board.memory.mem_ctrl.dram.bwTotal::processor.cores.l1d.prefetcher    239110923                       # Total bandwidth to/from this memory ((Byte/Second))
board.memory.mem_ctrl.dram.bwTotal::processor.cores.l2.prefetcher     17065694                       # Total bandwidth to/from this memory ((Byte/Second))
board.memory.mem_ctrl.dram.bwTotal::total    426745914                       # Total bandwidth to/from this memory ((Byte/Second))
board.memory.mem_ctrl.dram.readBursts           46234                       # Number of DRAM read bursts (Count)
board.memory.mem_ctrl.dram.writeBursts           1270                       # Number of DRAM write bursts (Count)
board.memory.mem_ctrl.dram.perBankRdBursts::0          228                       # Per bank write bursts (Count)
board.memory.mem_ctrl.dram.perBankRdBursts::1          253                       # Per bank write bursts (Count)
board.memory.mem_ctrl.dram.perBankRdBursts::2         5918                       # Per bank write bursts (Count)
board.memory.mem_ctrl.dram.perBankRdBursts::3        13847                       # Per bank write bursts (Count)
board.memory.mem_ctrl.dram.perBankRdBursts::4         7455                       # Per bank write bursts (Count)
board.memory.mem_ctrl.dram.perBankRdBursts::5          656                       # Per bank write bursts (Count)
board.memory.mem_ctrl.dram.perBankRdBursts::6         4050                       # Per bank write bursts (Count)
board.memory.mem_ctrl.dram.perBankRdBursts::7         8583                       # Per bank write bursts (Count)
board.memory.mem_ctrl.dram.perBankRdBursts::8         4608                       # Per bank write bursts (Count)
board.memory.mem_ctrl.dram.perBankRdBursts::9          118                       # Per bank write bursts (Count)
board.memory.mem_ctrl.dram.perBankRdBursts::10            9                       # Per bank write bursts (Count)
board.memory.mem_ctrl.dram.perBankRdBursts::11          226                       # Per bank write bursts (Count)
board.memory.mem_ctrl.dram.perBankRdBursts::12          113                       # Per bank write bursts (Count)
board.memory.mem_ctrl.dram.perBankRdBursts::13           32                       # Per bank write bursts (Count)
board.memory.mem_ctrl.dram.perBankRdBursts::14           47                       # Per bank write bursts (Count)
board.memory.mem_ctrl.dram.perBankRdBursts::15           91                       # Per bank write bursts (Count)
board.memory.mem_ctrl.dram.perBankWrBursts::0            2                       # Per bank write bursts (Count)
board.memory.mem_ctrl.dram.perBankWrBursts::1           55                       # Per bank write bursts (Count)
board.memory.mem_ctrl.dram.perBankWrBursts::2          131                       # Per bank write bursts (Count)
board.memory.mem_ctrl.dram.perBankWrBursts::3          244                       # Per bank write bursts (Count)
board.memory.mem_ctrl.dram.perBankWrBursts::4          183                       # Per bank write bursts (Count)
board.memory.mem_ctrl.dram.perBankWrBursts::5           94                       # Per bank write bursts (Count)
board.memory.mem_ctrl.dram.perBankWrBursts::6          118                       # Per bank write bursts (Count)
board.memory.mem_ctrl.dram.perBankWrBursts::7          220                       # Per bank write bursts (Count)
board.memory.mem_ctrl.dram.perBankWrBursts::8          135                       # Per bank write bursts (Count)
board.memory.mem_ctrl.dram.perBankWrBursts::9            0                       # Per bank write bursts (Count)
board.memory.mem_ctrl.dram.perBankWrBursts::10            3                       # Per bank write bursts (Count)
board.memory.mem_ctrl.dram.perBankWrBursts::11           38                       # Per bank write bursts (Count)
board.memory.mem_ctrl.dram.perBankWrBursts::12           44                       # Per bank write bursts (Count)
board.memory.mem_ctrl.dram.perBankWrBursts::13            3                       # Per bank write bursts (Count)
board.memory.mem_ctrl.dram.perBankWrBursts::14            0                       # Per bank write bursts (Count)
board.memory.mem_ctrl.dram.perBankWrBursts::15            0                       # Per bank write bursts (Count)
board.memory.mem_ctrl.dram.totQLat          520218342                       # Total ticks spent queuing (Tick)
board.memory.mem_ctrl.dram.totBusLat        231170000                       # Total ticks spent in databus transfers (Tick)
board.memory.mem_ctrl.dram.totMemAccLat    1387105842                       # Total ticks spent from burst creation until serviced by the DRAM (Tick)
board.memory.mem_ctrl.dram.avgQLat           11251.86                       # Average queueing delay per DRAM burst ((Tick/Count))
board.memory.mem_ctrl.dram.avgBusLat          5000.00                       # Average bus latency per DRAM burst ((Tick/Count))
board.memory.mem_ctrl.dram.avgMemAccLat      30001.86                       # Average memory access latency per DRAM burst ((Tick/Count))
board.memory.mem_ctrl.dram.readRowHits          42448                       # Number of row buffer hits during reads (Count)
board.memory.mem_ctrl.dram.writeRowHits          1141                       # Number of row buffer hits during writes (Count)
board.memory.mem_ctrl.dram.readRowHitRate        91.81                       # Row buffer hit rate for reads (Ratio)
board.memory.mem_ctrl.dram.writeRowHitRate        89.84                       # Row buffer hit rate for writes (Ratio)
board.memory.mem_ctrl.dram.bytesPerActivate::samples         3902                       # Bytes accessed per row activation (Byte)
board.memory.mem_ctrl.dram.bytesPerActivate::mean   778.037929                       # Bytes accessed per row activation (Byte)
board.memory.mem_ctrl.dram.bytesPerActivate::gmean   618.638802                       # Bytes accessed per row activation (Byte)
board.memory.mem_ctrl.dram.bytesPerActivate::stdev   355.474008                       # Bytes accessed per row activation (Byte)
board.memory.mem_ctrl.dram.bytesPerActivate::0-127          245      6.28%      6.28% # Bytes accessed per row activation (Byte)
board.memory.mem_ctrl.dram.bytesPerActivate::128-255          345      8.84%     15.12% # Bytes accessed per row activation (Byte)
board.memory.mem_ctrl.dram.bytesPerActivate::256-383          198      5.07%     20.19% # Bytes accessed per row activation (Byte)
board.memory.mem_ctrl.dram.bytesPerActivate::384-511          175      4.48%     24.68% # Bytes accessed per row activation (Byte)
board.memory.mem_ctrl.dram.bytesPerActivate::512-639          192      4.92%     29.60% # Bytes accessed per row activation (Byte)
board.memory.mem_ctrl.dram.bytesPerActivate::640-767          141      3.61%     33.21% # Bytes accessed per row activation (Byte)
board.memory.mem_ctrl.dram.bytesPerActivate::768-895           90      2.31%     35.52% # Bytes accessed per row activation (Byte)
board.memory.mem_ctrl.dram.bytesPerActivate::896-1023           88      2.26%     37.78% # Bytes accessed per row activation (Byte)
board.memory.mem_ctrl.dram.bytesPerActivate::1024-1151         2428     62.22%    100.00% # Bytes accessed per row activation (Byte)
board.memory.mem_ctrl.dram.bytesPerActivate::total         3902                       # Bytes accessed per row activation (Byte)
board.memory.mem_ctrl.dram.bytesRead          2958976                       # Total bytes read (Byte)
board.memory.mem_ctrl.dram.bytesWritten         81280                       # Total bytes written (Byte)
board.memory.mem_ctrl.dram.avgRdBW         736.708943                       # Average DRAM read bandwidth in MiBytes/s ((Byte/Second))
board.memory.mem_ctrl.dram.avgWrBW          20.236630                       # Average DRAM write bandwidth in MiBytes/s ((Byte/Second))
board.memory.mem_ctrl.dram.peakBW            12800.00                       # Theoretical peak bandwidth in MiByte/s ((Byte/Second))
board.memory.mem_ctrl.dram.busUtil               5.91                       # Data bus utilization in percentage (Ratio)
board.memory.mem_ctrl.dram.busUtilRead           5.76                       # Data bus utilization in percentage for reads (Ratio)
board.memory.mem_ctrl.dram.busUtilWrite          0.16                       # Data bus utilization in percentage for writes (Ratio)
board.memory.mem_ctrl.dram.pageHitRate          91.76                       # Row buffer hit rate, read and write combined (Ratio)
board.memory.mem_ctrl.dram.power_state.pwrStateResidencyTicks::UNDEFINED   4016479000                       # Cumulative time (in ticks) in various power states (Tick)
board.memory.mem_ctrl.dram.rank0.actEnergy     24047520                       # Energy for activate commands per rank (pJ) (Joule)
board.memory.mem_ctrl.dram.rank0.preEnergy     12751200                       # Energy for precharge commands per rank (pJ) (Joule)
board.memory.mem_ctrl.dram.rank0.readEnergy    292668600                       # Energy for read commands per rank (pJ) (Joule)
board.memory.mem_ctrl.dram.rank0.writeEnergy      5465340                       # Energy for write commands per rank (pJ) (Joule)
board.memory.mem_ctrl.dram.rank0.refreshEnergy 316539600.000000                       # Energy for refresh commands per rank (pJ) (Joule)
board.memory.mem_ctrl.dram.rank0.actBackEnergy   1786113810                       # Energy for active background per rank (pJ) (Joule)
board.memory.mem_ctrl.dram.rank0.preBackEnergy     38232480                       # Energy for precharge background per rank (pJ) (Joule)
board.memory.mem_ctrl.dram.rank0.actPowerDownEnergy            0                       # Energy for active power-down per rank (pJ) (Joule)
board.memory.mem_ctrl.dram.rank0.prePowerDownEnergy            0                       # Energy for precharge power-down per rank (pJ) (Joule)
board.memory.mem_ctrl.dram.rank0.selfRefreshEnergy            0                       # Energy for self refresh per rank (pJ) (Joule)
board.memory.mem_ctrl.dram.rank0.totalEnergy   2475818550                       # Total energy per rank (pJ) (Joule)
board.memory.mem_ctrl.dram.rank0.averagePower   616.415161                       # Core power per rank (mW) (Watt)
board.memory.mem_ctrl.dram.rank0.totalIdleTime            0                       # Total Idle time Per DRAM Rank (Tick)
board.memory.mem_ctrl.dram.rank0.pwrStateTime::IDLE     80668250                       # Time in different power states (Tick)
board.memory.mem_ctrl.dram.rank0.pwrStateTime::REF    133900000                       # Time in different power states (Tick)
board.memory.mem_ctrl.dram.rank0.pwrStateTime::SREF            0                       # Time in different power states (Tick)
board.memory.mem_ctrl.dram.rank0.pwrStateTime::PRE_PDN            0                       # Time in different power states (Tick)
board.memory.mem_ctrl.dram.rank0.pwrStateTime::ACT   3801910750                       # Time in different power states (Tick)
board.memory.mem_ctrl.dram.rank0.pwrStateTime::ACT_PDN            0                       # Time in different power states (Tick)
board.memory.mem_ctrl.dram.rank1.actEnergy      3905580                       # Energy for activate commands per rank (pJ) (Joule)
board.memory.mem_ctrl.dram.rank1.preEnergy      2056890                       # Energy for precharge commands per rank (pJ) (Joule)
board.memory.mem_ctrl.dram.rank1.readEnergy     37442160                       # Energy for read commands per rank (pJ) (Joule)
board.memory.mem_ctrl.dram.rank1.writeEnergy      1164060                       # Energy for write commands per rank (pJ) (Joule)
board.memory.mem_ctrl.dram.rank1.refreshEnergy 316539600.000000                       # Energy for refresh commands per rank (pJ) (Joule)
board.memory.mem_ctrl.dram.rank1.actBackEnergy    462405660                       # Energy for active background per rank (pJ) (Joule)
board.memory.mem_ctrl.dram.rank1.preBackEnergy   1152934080                       # Energy for precharge background per rank (pJ) (Joule)
board.memory.mem_ctrl.dram.rank1.actPowerDownEnergy            0                       # Energy for active power-down per rank (pJ) (Joule)
board.memory.mem_ctrl.dram.rank1.prePowerDownEnergy            0                       # Energy for precharge power-down per rank (pJ) (Joule)
board.memory.mem_ctrl.dram.rank1.selfRefreshEnergy            0                       # Energy for self refresh per rank (pJ) (Joule)
board.memory.mem_ctrl.dram.rank1.totalEnergy   1976448030                       # Total energy per rank (pJ) (Joule)
board.memory.mem_ctrl.dram.rank1.averagePower   492.084741                       # Core power per rank (mW) (Watt)
board.memory.mem_ctrl.dram.rank1.totalIdleTime            0                       # Total Idle time Per DRAM Rank (Tick)
board.memory.mem_ctrl.dram.rank1.pwrStateTime::IDLE   2990060264                       # Time in different power states (Tick)
board.memory.mem_ctrl.dram.rank1.pwrStateTime::REF    133900000                       # Time in different power states (Tick)
board.memory.mem_ctrl.dram.rank1.pwrStateTime::SREF            0                       # Time in different power states (Tick)
board.memory.mem_ctrl.dram.rank1.pwrStateTime::PRE_PDN            0                       # Time in different power states (Tick)
board.memory.mem_ctrl.dram.rank1.pwrStateTime::ACT    892518736                       # Time in different power states (Tick)
board.memory.mem_ctrl.dram.rank1.pwrStateTime::ACT_PDN            0                       # Time in different power states (Tick)
board.memory.mem_ctrl.power_state.pwrStateResidencyTicks::UNDEFINED   4016479000                       # Cumulative time (in ticks) in various power states (Tick)
board.processor.cores.core.numCycles          4016480                       # Number of cpu cycles simulated (Cycle)
board.processor.cores.core.cpi               0.591171                       # CPI: cycles per instruction (core level) ((Cycle/Count))
board.processor.cores.core.ipc               1.691558                       # IPC: instructions per cycle (core level) ((Count/Cycle))
board.processor.cores.core.numWorkItemsStarted            0                       # Number of work items this cpu started (Count)
board.processor.cores.core.numWorkItemsCompleted            0                       # Number of work items this cpu completed (Count)
board.processor.cores.core.instsAdded         7190823                       # Number of instructions added to the IQ (excludes non-spec) (Count)
board.processor.cores.core.nonSpecInstsAdded        36651                       # Number of non-speculative instructions added to the IQ (Count)
board.processor.cores.core.instsIssued        7082193                       # Number of instructions issued (Count)
board.processor.cores.core.squashedInstsIssued          145                       # Number of squashed instructions issued (Count)
board.processor.cores.core.squashedInstsExamined       309194                       # Number of squashed instructions iterated over during squash; mainly for profiling (Count)
board.processor.cores.core.squashedOperandsExamined       234889                       # Number of squashed operands that are examined and possibly removed from graph (Count)
board.processor.cores.core.squashedNonSpecRemoved         3830                       # Number of squashed non-spec instructions that were removed (Count)
board.processor.cores.core.numIssuedDist::samples      3986796                       # Number of insts issued each cycle (Count)
board.processor.cores.core.numIssuedDist::mean     1.776412                       # Number of insts issued each cycle (Count)
board.processor.cores.core.numIssuedDist::stdev     1.630717                       # Number of insts issued each cycle (Count)
board.processor.cores.core.numIssuedDist::underflows            0      0.00%      0.00% # Number of insts issued each cycle (Count)
board.processor.cores.core.numIssuedDist::0      1201151     30.13%     30.13% # Number of insts issued each cycle (Count)
board.processor.cores.core.numIssuedDist::1       797263     20.00%     50.13% # Number of insts issued each cycle (Count)
board.processor.cores.core.numIssuedDist::2       675799     16.95%     67.08% # Number of insts issued each cycle (Count)
board.processor.cores.core.numIssuedDist::3       618797     15.52%     82.60% # Number of insts issued each cycle (Count)
board.processor.cores.core.numIssuedDist::4       492984     12.37%     94.96% # Number of insts issued each cycle (Count)
board.processor.cores.core.numIssuedDist::5       136119      3.41%     98.38% # Number of insts issued each cycle (Count)
board.processor.cores.core.numIssuedDist::6        39238      0.98%     99.36% # Number of insts issued each cycle (Count)
board.processor.cores.core.numIssuedDist::7        14578      0.37%     99.73% # Number of insts issued each cycle (Count)
board.processor.cores.core.numIssuedDist::8        10867      0.27%    100.00% # Number of insts issued each cycle (Count)
board.processor.cores.core.numIssuedDist::overflows            0      0.00%    100.00% # Number of insts issued each cycle (Count)
board.processor.cores.core.numIssuedDist::min_value            0                       # Number of insts issued each cycle (Count)
board.processor.cores.core.numIssuedDist::max_value            8                       # Number of insts issued each cycle (Count)
board.processor.cores.core.numIssuedDist::total      3986796                       # Number of insts issued each cycle (Count)
board.processor.cores.core.statFuBusy::No_OpClass            0      0.00%      0.00% # attempts to use FU when none available (Count)
board.processor.cores.core.statFuBusy::IntAlu          532      0.46%      0.46% # attempts to use FU when none available (Count)
board.processor.cores.core.statFuBusy::IntMult            0      0.00%      0.46% # attempts to use FU when none available (Count)
board.processor.cores.core.statFuBusy::IntDiv            0      0.00%      0.46% # attempts to use FU when none available (Count)
board.processor.cores.core.statFuBusy::FloatAdd            0      0.00%      0.46% # attempts to use FU when none available (Count)
board.processor.cores.core.statFuBusy::FloatCmp            0      0.00%      0.46% # attempts to use FU when none available (Count)
board.processor.cores.core.statFuBusy::FloatCvt            0      0.00%      0.46% # attempts to use FU when none available (Count)
board.processor.cores.core.statFuBusy::FloatMult            0      0.00%      0.46% # attempts to use FU when none available (Count)
board.processor.cores.core.statFuBusy::FloatMultAcc            0      0.00%      0.46% # attempts to use FU when none available (Count)
board.processor.cores.core.statFuBusy::FloatDiv            0      0.00%      0.46% # attempts to use FU when none available (Count)
board.processor.cores.core.statFuBusy::FloatMisc            0      0.00%      0.46% # attempts to use FU when none available (Count)
board.processor.cores.core.statFuBusy::FloatSqrt            0      0.00%      0.46% # attempts to use FU when none available (Count)
board.processor.cores.core.statFuBusy::SimdAdd            0      0.00%      0.46% # attempts to use FU when none available (Count)
board.processor.cores.core.statFuBusy::SimdAddAcc            0      0.00%      0.46% # attempts to use FU when none available (Count)
board.processor.cores.core.statFuBusy::SimdAlu            0      0.00%      0.46% # attempts to use FU when none available (Count)
board.processor.cores.core.statFuBusy::SimdCmp            0      0.00%      0.46% # attempts to use FU when none available (Count)
board.processor.cores.core.statFuBusy::SimdCvt            0      0.00%      0.46% # attempts to use FU when none available (Count)
board.processor.cores.core.statFuBusy::SimdMisc            0      0.00%      0.46% # attempts to use FU when none available (Count)
board.processor.cores.core.statFuBusy::SimdMult            0      0.00%      0.46% # attempts to use FU when none available (Count)
board.processor.cores.core.statFuBusy::SimdMultAcc            0      0.00%      0.46% # attempts to use FU when none available (Count)
board.processor.cores.core.statFuBusy::SimdMatMultAcc            0      0.00%      0.46% # attempts to use FU when none available (Count)
board.processor.cores.core.statFuBusy::SimdShift            0      0.00%      0.46% # attempts to use FU when none available (Count)
board.processor.cores.core.statFuBusy::SimdShiftAcc            0      0.00%      0.46% # attempts to use FU when none available (Count)
board.processor.cores.core.statFuBusy::SimdDiv            0      0.00%      0.46% # attempts to use FU when none available (Count)
board.processor.cores.core.statFuBusy::SimdSqrt            0      0.00%      0.46% # attempts to use FU when none available (Count)
board.processor.cores.core.statFuBusy::SimdFloatAdd            0      0.00%      0.46% # attempts to use FU when none available (Count)
board.processor.cores.core.statFuBusy::SimdFloatAlu            0      0.00%      0.46% # attempts to use FU when none available (Count)
board.processor.cores.core.statFuBusy::SimdFloatCmp            0      0.00%      0.46% # attempts to use FU when none available (Count)
board.processor.cores.core.statFuBusy::SimdFloatCvt            0      0.00%      0.46% # attempts to use FU when none available (Count)
board.processor.cores.core.statFuBusy::SimdFloatDiv            0      0.00%      0.46% # attempts to use FU when none available (Count)
board.processor.cores.core.statFuBusy::SimdFloatMisc            0      0.00%      0.46% # attempts to use FU when none available (Count)
board.processor.cores.core.statFuBusy::SimdFloatMult            0      0.00%      0.46% # attempts to use FU when none available (Count)
board.processor.cores.core.statFuBusy::SimdFloatMultAcc            0      0.00%      0.46% # attempts to use FU when none available (Count)
board.processor.cores.core.statFuBusy::SimdFloatMatMultAcc            0      0.00%      0.46% # attempts to use FU when none available (Count)
board.processor.cores.core.statFuBusy::SimdFloatSqrt            0      0.00%      0.46% # attempts to use FU when none available (Count)
board.processor.cores.core.statFuBusy::SimdReduceAdd            0      0.00%      0.46% # attempts to use FU when none available (Count)
board.processor.cores.core.statFuBusy::SimdReduceAlu            0      0.00%      0.46% # attempts to use FU when none available (Count)
board.processor.cores.core.statFuBusy::SimdReduceCmp            0      0.00%      0.46% # attempts to use FU when none available (Count)
board.processor.cores.core.statFuBusy::SimdFloatReduceAdd            0      0.00%      0.46% # attempts to use FU when none available (Count)
board.processor.cores.core.statFuBusy::SimdFloatReduceCmp            0      0.00%      0.46% # attempts to use FU when none available (Count)
board.processor.cores.core.statFuBusy::SimdAes            0      0.00%      0.46% # attempts to use FU when none available (Count)
board.processor.cores.core.statFuBusy::SimdAesMix            0      0.00%      0.46% # attempts to use FU when none available (Count)
board.processor.cores.core.statFuBusy::SimdSha1Hash            0      0.00%      0.46% # attempts to use FU when none available (Count)
board.processor.cores.core.statFuBusy::SimdSha1Hash2            0      0.00%      0.46% # attempts to use FU when none available (Count)
board.processor.cores.core.statFuBusy::SimdSha256Hash            0      0.00%      0.46% # attempts to use FU when none available (Count)
board.processor.cores.core.statFuBusy::SimdSha256Hash2            0      0.00%      0.46% # attempts to use FU when none available (Count)
board.processor.cores.core.statFuBusy::SimdShaSigma2            0      0.00%      0.46% # attempts to use FU when none available (Count)
board.processor.cores.core.statFuBusy::SimdShaSigma3            0      0.00%      0.46% # attempts to use FU when none available (Count)
board.processor.cores.core.statFuBusy::SimdPredAlu            0      0.00%      0.46% # attempts to use FU when none available (Count)
board.processor.cores.core.statFuBusy::Matrix            0      0.00%      0.46% # attempts to use FU when none available (Count)
board.processor.cores.core.statFuBusy::MatrixMov            0      0.00%      0.46% # attempts to use FU when none available (Count)
board.processor.cores.core.statFuBusy::MatrixOP            0      0.00%      0.46% # attempts to use FU when none available (Count)
board.processor.cores.core.statFuBusy::MemRead       104778     90.22%     90.68% # attempts to use FU when none available (Count)
board.processor.cores.core.statFuBusy::MemWrite        10826      9.32%    100.00% # attempts to use FU when none available (Count)
board.processor.cores.core.statFuBusy::FloatMemRead            0      0.00%    100.00% # attempts to use FU when none available (Count)
board.processor.cores.core.statFuBusy::FloatMemWrite            0      0.00%    100.00% # attempts to use FU when none available (Count)
board.processor.cores.core.statFuBusy::IprAccess            0      0.00%    100.00% # attempts to use FU when none available (Count)
board.processor.cores.core.statFuBusy::InstPrefetch            0      0.00%    100.00% # attempts to use FU when none available (Count)
board.processor.cores.core.statFuBusy::VectorUnitStrideLoad            0      0.00%    100.00% # attempts to use FU when none available (Count)
board.processor.cores.core.statFuBusy::VectorUnitStrideStore            0      0.00%    100.00% # attempts to use FU when none available (Count)
board.processor.cores.core.statFuBusy::VectorUnitStrideMaskLoad            0      0.00%    100.00% # attempts to use FU when none available (Count)
board.processor.cores.core.statFuBusy::VectorUnitStrideMaskStore            0      0.00%    100.00% # attempts to use FU when none available (Count)
board.processor.cores.core.statFuBusy::VectorStridedLoad            0      0.00%    100.00% # attempts to use FU when none available (Count)
board.processor.cores.core.statFuBusy::VectorStridedStore            0      0.00%    100.00% # attempts to use FU when none available (Count)
board.processor.cores.core.statFuBusy::VectorIndexedLoad            0      0.00%    100.00% # attempts to use FU when none available (Count)
board.processor.cores.core.statFuBusy::VectorIndexedStore            0      0.00%    100.00% # attempts to use FU when none available (Count)
board.processor.cores.core.statFuBusy::VectorUnitStrideFaultOnlyFirstLoad            0      0.00%    100.00% # attempts to use FU when none available (Count)
board.processor.cores.core.statFuBusy::VectorWholeRegisterLoad            0      0.00%    100.00% # attempts to use FU when none available (Count)
board.processor.cores.core.statFuBusy::VectorWholeRegisterStore            0      0.00%    100.00% # attempts to use FU when none available (Count)
board.processor.cores.core.statFuBusy::VectorIntegerArith            0      0.00%    100.00% # attempts to use FU when none available (Count)
board.processor.cores.core.statFuBusy::VectorFloatArith            0      0.00%    100.00% # attempts to use FU when none available (Count)
board.processor.cores.core.statFuBusy::VectorFloatConvert            0      0.00%    100.00% # attempts to use FU when none available (Count)
board.processor.cores.core.statFuBusy::VectorIntegerReduce            0      0.00%    100.00% # attempts to use FU when none available (Count)
board.processor.cores.core.statFuBusy::VectorFloatReduce            0      0.00%    100.00% # attempts to use FU when none available (Count)
board.processor.cores.core.statFuBusy::VectorMisc            0      0.00%    100.00% # attempts to use FU when none available (Count)
board.processor.cores.core.statFuBusy::VectorIntegerExtension            0      0.00%    100.00% # attempts to use FU when none available (Count)
board.processor.cores.core.statFuBusy::VectorConfig            0      0.00%    100.00% # attempts to use FU when none available (Count)
board.processor.cores.core.statIssuedInstType_0::No_OpClass        16404      0.23%      0.23% # Number of instructions issued per FU type, per thread (Count)
board.processor.cores.core.statIssuedInstType_0::IntAlu      2405526     33.97%     34.20% # Number of instructions issued per FU type, per thread (Count)
board.processor.cores.core.statIssuedInstType_0::IntMult       272267      3.84%     38.04% # Number of instructions issued per FU type, per thread (Count)
board.processor.cores.core.statIssuedInstType_0::IntDiv            5      0.00%     38.04% # Number of instructions issued per FU type, per thread (Count)
board.processor.cores.core.statIssuedInstType_0::FloatAdd            0      0.00%     38.04% # Number of instructions issued per FU type, per thread (Count)
board.processor.cores.core.statIssuedInstType_0::FloatCmp            0      0.00%     38.04% # Number of instructions issued per FU type, per thread (Count)
board.processor.cores.core.statIssuedInstType_0::FloatCvt            0      0.00%     38.04% # Number of instructions issued per FU type, per thread (Count)
board.processor.cores.core.statIssuedInstType_0::FloatMult            0      0.00%     38.04% # Number of instructions issued per FU type, per thread (Count)
board.processor.cores.core.statIssuedInstType_0::FloatMultAcc            0      0.00%     38.04% # Number of instructions issued per FU type, per thread (Count)
board.processor.cores.core.statIssuedInstType_0::FloatDiv            0      0.00%     38.04% # Number of instructions issued per FU type, per thread (Count)
board.processor.cores.core.statIssuedInstType_0::FloatMisc            3      0.00%     38.04% # Number of instructions issued per FU type, per thread (Count)
board.processor.cores.core.statIssuedInstType_0::FloatSqrt            0      0.00%     38.04% # Number of instructions issued per FU type, per thread (Count)
board.processor.cores.core.statIssuedInstType_0::SimdAdd            2      0.00%     38.04% # Number of instructions issued per FU type, per thread (Count)
board.processor.cores.core.statIssuedInstType_0::SimdAddAcc            0      0.00%     38.04% # Number of instructions issued per FU type, per thread (Count)
board.processor.cores.core.statIssuedInstType_0::SimdAlu            4      0.00%     38.04% # Number of instructions issued per FU type, per thread (Count)
board.processor.cores.core.statIssuedInstType_0::SimdCmp            5      0.00%     38.04% # Number of instructions issued per FU type, per thread (Count)
board.processor.cores.core.statIssuedInstType_0::SimdCvt            0      0.00%     38.04% # Number of instructions issued per FU type, per thread (Count)
board.processor.cores.core.statIssuedInstType_0::SimdMisc            5      0.00%     38.04% # Number of instructions issued per FU type, per thread (Count)
board.processor.cores.core.statIssuedInstType_0::SimdMult            0      0.00%     38.04% # Number of instructions issued per FU type, per thread (Count)
board.processor.cores.core.statIssuedInstType_0::SimdMultAcc            0      0.00%     38.04% # Number of instructions issued per FU type, per thread (Count)
board.processor.cores.core.statIssuedInstType_0::SimdMatMultAcc            0      0.00%     38.04% # Number of instructions issued per FU type, per thread (Count)
board.processor.cores.core.statIssuedInstType_0::SimdShift            0      0.00%     38.04% # Number of instructions issued per FU type, per thread (Count)
board.processor.cores.core.statIssuedInstType_0::SimdShiftAcc            0      0.00%     38.04% # Number of instructions issued per FU type, per thread (Count)
board.processor.cores.core.statIssuedInstType_0::SimdDiv            0      0.00%     38.04% # Number of instructions issued per FU type, per thread (Count)
board.processor.cores.core.statIssuedInstType_0::SimdSqrt            0      0.00%     38.04% # Number of instructions issued per FU type, per thread (Count)
board.processor.cores.core.statIssuedInstType_0::SimdFloatAdd            0      0.00%     38.04% # Number of instructions issued per FU type, per thread (Count)
board.processor.cores.core.statIssuedInstType_0::SimdFloatAlu            0      0.00%     38.04% # Number of instructions issued per FU type, per thread (Count)
board.processor.cores.core.statIssuedInstType_0::SimdFloatCmp            0      0.00%     38.04% # Number of instructions issued per FU type, per thread (Count)
board.processor.cores.core.statIssuedInstType_0::SimdFloatCvt            0      0.00%     38.04% # Number of instructions issued per FU type, per thread (Count)
board.processor.cores.core.statIssuedInstType_0::SimdFloatDiv            0      0.00%     38.04% # Number of instructions issued per FU type, per thread (Count)
board.processor.cores.core.statIssuedInstType_0::SimdFloatMisc            0      0.00%     38.04% # Number of instructions issued per FU type, per thread (Count)
board.processor.cores.core.statIssuedInstType_0::SimdFloatMult            0      0.00%     38.04% # Number of instructions issued per FU type, per thread (Count)
board.processor.cores.core.statIssuedInstType_0::SimdFloatMultAcc            0      0.00%     38.04% # Number of instructions issued per FU type, per thread (Count)
board.processor.cores.core.statIssuedInstType_0::SimdFloatMatMultAcc            0      0.00%     38.04% # Number of instructions issued per FU type, per thread (Count)
board.processor.cores.core.statIssuedInstType_0::SimdFloatSqrt            0      0.00%     38.04% # Number of instructions issued per FU type, per thread (Count)
board.processor.cores.core.statIssuedInstType_0::SimdReduceAdd            0      0.00%     38.04% # Number of instructions issued per FU type, per thread (Count)
board.processor.cores.core.statIssuedInstType_0::SimdReduceAlu            0      0.00%     38.04% # Number of instructions issued per FU type, per thread (Count)
board.processor.cores.core.statIssuedInstType_0::SimdReduceCmp            0      0.00%     38.04% # Number of instructions issued per FU type, per thread (Count)
board.processor.cores.core.statIssuedInstType_0::SimdFloatReduceAdd            0      0.00%     38.04% # Number of instructions issued per FU type, per thread (Count)
board.processor.cores.core.statIssuedInstType_0::SimdFloatReduceCmp            0      0.00%     38.04% # Number of instructions issued per FU type, per thread (Count)
board.processor.cores.core.statIssuedInstType_0::SimdAes            0      0.00%     38.04% # Number of instructions issued per FU type, per thread (Count)
board.processor.cores.core.statIssuedInstType_0::SimdAesMix            0      0.00%     38.04% # Number of instructions issued per FU type, per thread (Count)
board.processor.cores.core.statIssuedInstType_0::SimdSha1Hash            0      0.00%     38.04% # Number of instructions issued per FU type, per thread (Count)
board.processor.cores.core.statIssuedInstType_0::SimdSha1Hash2            0      0.00%     38.04% # Number of instructions issued per FU type, per thread (Count)
board.processor.cores.core.statIssuedInstType_0::SimdSha256Hash            0      0.00%     38.04% # Number of instructions issued per FU type, per thread (Count)
board.processor.cores.core.statIssuedInstType_0::SimdSha256Hash2            0      0.00%     38.04% # Number of instructions issued per FU type, per thread (Count)
board.processor.cores.core.statIssuedInstType_0::SimdShaSigma2            0      0.00%     38.04% # Number of instructions issued per FU type, per thread (Count)
board.processor.cores.core.statIssuedInstType_0::SimdShaSigma3            0      0.00%     38.04% # Number of instructions issued per FU type, per thread (Count)
board.processor.cores.core.statIssuedInstType_0::SimdPredAlu            0      0.00%     38.04% # Number of instructions issued per FU type, per thread (Count)
board.processor.cores.core.statIssuedInstType_0::Matrix            0      0.00%     38.04% # Number of instructions issued per FU type, per thread (Count)
board.processor.cores.core.statIssuedInstType_0::MatrixMov            0      0.00%     38.04% # Number of instructions issued per FU type, per thread (Count)
board.processor.cores.core.statIssuedInstType_0::MatrixOP            0      0.00%     38.04% # Number of instructions issued per FU type, per thread (Count)
board.processor.cores.core.statIssuedInstType_0::MemRead      3163517     44.67%     82.71% # Number of instructions issued per FU type, per thread (Count)
board.processor.cores.core.statIssuedInstType_0::MemWrite      1224455     17.29%    100.00% # Number of instructions issued per FU type, per thread (Count)
board.processor.cores.core.statIssuedInstType_0::FloatMemRead            0      0.00%    100.00% # Number of instructions issued per FU type, per thread (Count)
board.processor.cores.core.statIssuedInstType_0::FloatMemWrite            0      0.00%    100.00% # Number of instructions issued per FU type, per thread (Count)
board.processor.cores.core.statIssuedInstType_0::IprAccess            0      0.00%    100.00% # Number of instructions issued per FU type, per thread (Count)
board.processor.cores.core.statIssuedInstType_0::InstPrefetch            0      0.00%    100.00% # Number of instructions issued per FU type, per thread (Count)
board.processor.cores.core.statIssuedInstType_0::VectorUnitStrideLoad            0      0.00%    100.00% # Number of instructions issued per FU type, per thread (Count)
board.processor.cores.core.statIssuedInstType_0::VectorUnitStrideStore            0      0.00%    100.00% # Number of instructions issued per FU type, per thread (Count)
board.processor.cores.core.statIssuedInstType_0::VectorUnitStrideMaskLoad            0      0.00%    100.00% # Number of instructions issued per FU type, per thread (Count)
board.processor.cores.core.statIssuedInstType_0::VectorUnitStrideMaskStore            0      0.00%    100.00% # Number of instructions issued per FU type, per thread (Count)
board.processor.cores.core.statIssuedInstType_0::VectorStridedLoad            0      0.00%    100.00% # Number of instructions issued per FU type, per thread (Count)
board.processor.cores.core.statIssuedInstType_0::VectorStridedStore            0      0.00%    100.00% # Number of instructions issued per FU type, per thread (Count)
board.processor.cores.core.statIssuedInstType_0::VectorIndexedLoad            0      0.00%    100.00% # Number of instructions issued per FU type, per thread (Count)
board.processor.cores.core.statIssuedInstType_0::VectorIndexedStore            0      0.00%    100.00% # Number of instructions issued per FU type, per thread (Count)
board.processor.cores.core.statIssuedInstType_0::VectorUnitStrideFaultOnlyFirstLoad            0      0.00%    100.00% # Number of instructions issued per FU type, per thread (Count)
board.processor.cores.core.statIssuedInstType_0::VectorWholeRegisterLoad            0      0.00%    100.00% # Number of instructions issued per FU type, per thread (Count)
board.processor.cores.core.statIssuedInstType_0::VectorWholeRegisterStore            0      0.00%    100.00% # Number of instructions issued per FU type, per thread (Count)
board.processor.cores.core.statIssuedInstType_0::VectorIntegerArith            0      0.00%    100.00% # Number of instructions issued per FU type, per thread (Count)
board.processor.cores.core.statIssuedInstType_0::VectorFloatArith            0      0.00%    100.00% # Number of instructions issued per FU type, per thread (Count)
board.processor.cores.core.statIssuedInstType_0::VectorFloatConvert            0      0.00%    100.00% # Number of instructions issued per FU type, per thread (Count)
board.processor.cores.core.statIssuedInstType_0::VectorIntegerReduce            0      0.00%    100.00% # Number of instructions issued per FU type, per thread (Count)
board.processor.cores.core.statIssuedInstType_0::VectorFloatReduce            0      0.00%    100.00% # Number of instructions issued per FU type, per thread (Count)
board.processor.cores.core.statIssuedInstType_0::VectorMisc            0      0.00%    100.00% # Number of instructions issued per FU type, per thread (Count)
board.processor.cores.core.statIssuedInstType_0::VectorIntegerExtension            0      0.00%    100.00% # Number of instructions issued per FU type, per thread (Count)
board.processor.cores.core.statIssuedInstType_0::VectorConfig            0      0.00%    100.00% # Number of instructions issued per FU type, per thread (Count)
board.processor.cores.core.statIssuedInstType_0::total      7082193                       # Number of instructions issued per FU type, per thread (Count)
board.processor.cores.core.issueRate         1.763284                       # Inst issue rate ((Count/Cycle))
board.processor.cores.core.fuBusy              116136                       # FU busy when requested (Count)
board.processor.cores.core.fuBusyRate        0.016398                       # FU busy rate (busy events/executed inst) ((Count/Count))
board.processor.cores.core.intInstQueueReads     18267222                       # Number of integer instruction queue reads (Count)
board.processor.cores.core.intInstQueueWrites      7538433                       # Number of integer instruction queue writes (Count)
board.processor.cores.core.intInstQueueWakeupAccesses      7063800                       # Number of integer instruction queue wakeup accesses (Count)
board.processor.cores.core.fpInstQueueReads            0                       # Number of floating instruction queue reads (Count)
board.processor.cores.core.fpInstQueueWrites            0                       # Number of floating instruction queue writes (Count)
board.processor.cores.core.fpInstQueueWakeupAccesses            0                       # Number of floating instruction queue wakeup accesses (Count)
board.processor.cores.core.vecInstQueueReads          241                       # Number of vector instruction queue reads (Count)
[...]
board.processor.cores.l2.ReadSharedReq.avgMshrMissLatency::processor.cores.core.data 63849.437510                       # average ReadSharedReq mshr miss latency ((Tick/Count))
board.processor.cores.l2.ReadSharedReq.avgMshrMissLatency::processor.cores.l1d.prefetcher 72621.880953                       # average ReadSharedReq mshr miss latency ((Tick/Count))
board.processor.cores.l2.ReadSharedReq.avgMshrMissLatency::total 69989.891219                       # average ReadSharedReq mshr miss latency ((Tick/Count))
board.processor.cores.l2.WritebackClean.hits::writebacks        36769                       # number of WritebackClean hits (Count)
board.processor.cores.l2.WritebackClean.hits::total        36769                       # number of WritebackClean hits (Count)
board.processor.cores.l2.WritebackClean.accesses::writebacks        36769                       # number of WritebackClean accesses(hits+misses) (Count)
board.processor.cores.l2.WritebackClean.accesses::total        36769                       # number of WritebackClean accesses(hits+misses) (Count)
board.processor.cores.l2.WritebackDirty.hits::writebacks       253753                       # number of WritebackDirty hits (Count)
board.processor.cores.l2.WritebackDirty.hits::total       253753                       # number of WritebackDirty hits (Count)
board.processor.cores.l2.WritebackDirty.accesses::writebacks       253753                       # number of WritebackDirty accesses(hits+misses) (Count)
board.processor.cores.l2.WritebackDirty.accesses::total       253753                       # number of WritebackDirty accesses(hits+misses) (Count)
board.processor.cores.l2.power_state.pwrStateResidencyTicks::UNDEFINED   4016479000                       # Cumulative time (in ticks) in various power states (Tick)
board.processor.cores.l2.prefetcher.demandMshrMisses        47182                       # demands not covered by prefetchs (Count)
board.processor.cores.l2.prefetcher.pfIssued        16193                       # number of hwpf issued (Count)
board.processor.cores.l2.prefetcher.pfUnused          512                       # number of HardPF blocks evicted w/o reference (Count)
board.processor.cores.l2.prefetcher.pfUseful          817                       # number of useful prefetch (Count)
board.processor.cores.l2.prefetcher.pfUsefulButMiss            0                       # number of hit on prefetch but cache block is not in an usable state (Count)
board.processor.cores.l2.prefetcher.accuracy     0.050454                       # accuracy of the prefetcher (Count)
board.processor.cores.l2.prefetcher.coverage     0.017021                       # coverage brought by this prefetcher (Count)
board.processor.cores.l2.prefetcher.pfHitInCache        10356                       # number of prefetches hitting in cache (Count)
board.processor.cores.l2.prefetcher.pfHitInMSHR          274                       # number of prefetches hitting in a MSHR (Count)
board.processor.cores.l2.prefetcher.pfHitInWB          383                       # number of prefetches hit in the Write Buffer (Count)
board.processor.cores.l2.prefetcher.pfLate        11013                       # number of late prefetches (hitting in cache, MSHR or WB) (Count)
board.processor.cores.l2.prefetcher.pfIdentified        20672                       # number of prefetch candidates identified (Count)
board.processor.cores.l2.prefetcher.pfBufferHit         2743                       # number of redundant prefetches already in prefetch queue (Count)
board.processor.cores.l2.prefetcher.pfInCache            0                       # number of redundant prefetches already in cache/mshr dropped (Count)
board.processor.cores.l2.prefetcher.pfRemovedDemand          634                       # number of prefetches dropped due to a demand for the same address (Count)
board.processor.cores.l2.prefetcher.pfRemovedFull            0                       # number of prefetches dropped due to prefetch queue size (Count)
board.processor.cores.l2.prefetcher.pfSpanPage          944                       # number of prefetches that crossed the page (Count)
board.processor.cores.l2.prefetcher.pfUsefulSpanPage            0                       # number of prefetches that is useful and crossed the page (Count)
board.processor.cores.l2.prefetcher.power_state.pwrStateResidencyTicks::UNDEFINED   4016479000                       # Cumulative time (in ticks) in various power states (Tick)
board.processor.cores.l2.tags.tagsInUse    979.640106                       # Average ticks per tags in use ((Tick/Count))
board.processor.cores.l2.tags.totalRefs        839793                       # Total number of references to valid blocks. (Count)
board.processor.cores.l2.tags.sampledRefs        65726                       # Sample count of references to valid blocks. (Count)
board.processor.cores.l2.tags.avgRefs       12.777181                       # Average number of references to valid blocks. ((Count/Count))
board.processor.cores.l2.tags.warmupTick        77000                       # The tick when the warmup percentage was hit. (Tick)
board.processor.cores.l2.tags.occupancies::writebacks   386.209902                       # Average occupied blocks per tick, per requestor ((Count/Tick))
board.processor.cores.l2.tags.occupancies::processor.cores.core.inst    45.467848                       # Average occupied blocks per tick, per requestor ((Count/Tick))
board.processor.cores.l2.tags.occupancies::processor.cores.core.data   124.103058                       # Average occupied blocks per tick, per requestor ((Count/Tick))
board.processor.cores.l2.tags.occupancies::processor.cores.l1d.prefetcher   222.439712                       # Average occupied blocks per tick, per requestor ((Count/Tick))
board.processor.cores.l2.tags.occupancies::processor.cores.l2.prefetcher   201.419586                       # Average occupied blocks per tick, per requestor ((Count/Tick))
board.processor.cores.l2.tags.avgOccs::writebacks     0.377158                       # Average percentage of cache occupancy ((Ratio/Tick))
board.processor.cores.l2.tags.avgOccs::processor.cores.core.inst     0.044402                       # Average percentage of cache occupancy ((Ratio/Tick))
board.processor.cores.l2.tags.avgOccs::processor.cores.core.data     0.121194                       # Average percentage of cache occupancy ((Ratio/Tick))
board.processor.cores.l2.tags.avgOccs::processor.cores.l1d.prefetcher     0.217226                       # Average percentage of cache occupancy ((Ratio/Tick))
board.processor.cores.l2.tags.avgOccs::processor.cores.l2.prefetcher     0.196699                       # Average percentage of cache occupancy ((Ratio/Tick))
board.processor.cores.l2.tags.avgOccs::total     0.956680                       # Average percentage of cache occupancy ((Ratio/Tick))
board.processor.cores.l2.tags.occupanciesTaskId::1022          365                       # Occupied blocks per task id (Count)
board.processor.cores.l2.tags.occupanciesTaskId::1024          659                       # Occupied blocks per task id (Count)
board.processor.cores.l2.tags.ageTaskId_1022::0           11                       # Occupied blocks per task id, per block age (Count)
board.processor.cores.l2.tags.ageTaskId_1022::1            6                       # Occupied blocks per task id, per block age (Count)
board.processor.cores.l2.tags.ageTaskId_1022::2            1                       # Occupied blocks per task id, per block age (Count)
board.processor.cores.l2.tags.ageTaskId_1022::3          347                       # Occupied blocks per task id, per block age (Count)
board.processor.cores.l2.tags.ageTaskId_1024::0          277                       # Occupied blocks per task id, per block age (Count)
board.processor.cores.l2.tags.ageTaskId_1024::1           16                       # Occupied blocks per task id, per block age (Count)
board.processor.cores.l2.tags.ageTaskId_1024::2          104                       # Occupied blocks per task id, per block age (Count)
board.processor.cores.l2.tags.ageTaskId_1024::3          262                       # Occupied blocks per task id, per block age (Count)
board.processor.cores.l2.tags.ratioOccsTaskId::1022     0.356445                       # Ratio of occupied blocks and all blocks, per task id (Ratio)
board.processor.cores.l2.tags.ratioOccsTaskId::1024     0.643555                       # Ratio of occupied blocks and all blocks, per task id (Ratio)
board.processor.cores.l2.tags.tagAccesses       931680                       # Number of tag accesses (Count)
board.processor.cores.l2.tags.dataAccesses       931680                       # Number of data accesses (Count)
board.processor.cores.l2.tags.power_state.pwrStateResidencyTicks::UNDEFINED   4016479000                       # Cumulative time (in ticks) in various power states (Tick)
board.processor.cores.l2_bus.transDist::ReadResp       393177                       # Transaction distribution (Count)
board.processor.cores.l2_bus.transDist::WritebackDirty       257776                       # Transaction distribution (Count)
board.processor.cores.l2_bus.transDist::WritebackClean        36769                       # Transaction distribution (Count)
board.processor.cores.l2_bus.transDist::CleanEvict       202879                       # Transaction distribution (Count)
board.processor.cores.l2_bus.transDist::HardPFReq         6545                       # Transaction distribution (Count)
board.processor.cores.l2_bus.transDist::ReadExReq        39777                       # Transaction distribution (Count)
board.processor.cores.l2_bus.transDist::ReadExResp        39777                       # Transaction distribution (Count)
board.processor.cores.l2_bus.transDist::ReadSharedReq       393178                       # Transaction distribution (Count)
board.processor.cores.l2_bus.transDist::InvalidateReq          151                       # Transaction distribution (Count)
board.processor.cores.l2_bus.transDist::InvalidateResp          151                       # Transaction distribution (Count)
board.processor.cores.l2_bus.pktCount_board.processor.cores.l1i.mem_side_port::board.processor.cores.l2.cpu_side_port       110564                       # Packet count per connected requestor and responder (Count)
board.processor.cores.l2_bus.pktCount_board.processor.cores.l1d.mem_side_port::board.processor.cores.l2.cpu_side_port      1188496                       # Packet count per connected requestor and responder (Count)
board.processor.cores.l2_bus.pktCount::total      1299060                       # Packet count per connected requestor and responder (Count)
board.processor.cores.l2_bus.pktSize_board.processor.cores.l1i.mem_side_port::board.processor.cores.l2.cpu_side_port      2357312                       # Cumulative packet size per connected requestor and responder (Byte)
board.processor.cores.l2_bus.pktSize_board.processor.cores.l1d.mem_side_port::board.processor.cores.l2.cpu_side_port     20793920                       # Cumulative packet size per connected requestor and responder (Byte)
board.processor.cores.l2_bus.pktSize::total     23151232                       # Cumulative packet size per connected requestor and responder (Byte)
board.processor.cores.l2_bus.snoops             71120                       # Total snoops (Count)
board.processor.cores.l2_bus.snoopTraffic       128736                       # Total snoop traffic (Byte)
board.processor.cores.l2_bus.snoopFanout::samples       504226                       # Request fanout histogram (Count)
board.processor.cores.l2_bus.snoopFanout::mean     0.092468                       # Request fanout histogram (Count)
board.processor.cores.l2_bus.snoopFanout::stdev     0.289686                       # Request fanout histogram (Count)
board.processor.cores.l2_bus.snoopFanout::underflows            0      0.00%      0.00% # Request fanout histogram (Count)
board.processor.cores.l2_bus.snoopFanout::0       457601     90.75%     90.75% # Request fanout histogram (Count)
board.processor.cores.l2_bus.snoopFanout::1        46625      9.25%    100.00% # Request fanout histogram (Count)
board.processor.cores.l2_bus.snoopFanout::2            0      0.00%    100.00% # Request fanout histogram (Count)
board.processor.cores.l2_bus.snoopFanout::overflows            0      0.00%    100.00% # Request fanout histogram (Count)
board.processor.cores.l2_bus.snoopFanout::min_value            0                       # Request fanout histogram (Count)
board.processor.cores.l2_bus.snoopFanout::max_value            1                       # Request fanout histogram (Count)
board.processor.cores.l2_bus.snoopFanout::total       504226                       # Request fanout histogram (Count)
board.processor.cores.l2_bus.power_state.pwrStateResidencyTicks::UNDEFINED   4016479000                       # Cumulative time (in ticks) in various power states (Tick)
board.processor.cores.l2_bus.reqLayer0.occupancy   1171749176                       # Layer occupancy (ticks) (Tick)
board.processor.cores.l2_bus.reqLayer0.utilization          0.3                       # Layer utilization (Ratio)
board.processor.cores.l2_bus.respLayer0.occupancy     74327466                       # Layer occupancy (ticks) (Tick)
board.processor.cores.l2_bus.respLayer0.utilization          0.0                       # Layer utilization (Ratio)
board.processor.cores.l2_bus.respLayer1.occupancy    792772492                       # Layer occupancy (ticks) (Tick)
board.processor.cores.l2_bus.respLayer1.utilization          0.2                       # Layer utilization (Ratio)
board.processor.cores.l2_bus.snoop_filter.totRequests       865955                       # Total number of requests made to the snoop filter. (Count)
board.processor.cores.l2_bus.snoop_filter.hitSingleRequests       432849                       # Number of requests hitting in the snoop filter with a single holder of the requested data. (Count)
board.processor.cores.l2_bus.snoop_filter.hitMultiRequests            1                       # Number of requests hitting in the snoop filter with multiple (>1) holders of the requested data. (Count)
board.processor.cores.l2_bus.snoop_filter.totSnoops        46624                       # Total number of snoops made to the snoop filter. (Count)
board.processor.cores.l2_bus.snoop_filter.hitSingleSnoops        46624                       # Number of snoops hitting in the snoop filter with a single holder of the requested data. (Count)
board.processor.cores.l2_bus.snoop_filter.hitMultiSnoops            0                       # Number of snoops hitting in the snoop filter with multiple (>1) holders of the requested data. (Count)
board.processor.cores.mmu_bus.snoops                0                       # Total snoops (Count)
board.processor.cores.mmu_bus.snoopTraffic            0                       # Total snoop traffic (Byte)
board.processor.cores.mmu_bus.snoopFanout::samples            0                       # Request fanout histogram (Count)
board.processor.cores.mmu_bus.snoopFanout::mean          nan                       # Request fanout histogram (Count)
board.processor.cores.mmu_bus.snoopFanout::stdev          nan                       # Request fanout histogram (Count)
board.processor.cores.mmu_bus.snoopFanout::underflows            0                       # Request fanout histogram (Count)
board.processor.cores.mmu_bus.snoopFanout::0            0                       # Request fanout histogram (Count)
board.processor.cores.mmu_bus.snoopFanout::overflows            0                       # Request fanout histogram (Count)
board.processor.cores.mmu_bus.snoopFanout::min_value            0                       # Request fanout histogram (Count)
board.processor.cores.mmu_bus.snoopFanout::max_value            0                       # Request fanout histogram (Count)
board.processor.cores.mmu_bus.snoopFanout::total            0                       # Request fanout histogram (Count)
board.processor.cores.mmu_bus.power_state.pwrStateResidencyTicks::UNDEFINED   4016479000                       # Cumulative time (in ticks) in various power states (Tick)
board.processor.cores.mmu_bus.snoop_filter.totRequests            0                       # Total number of requests made to the snoop filter. (Count)
board.processor.cores.mmu_bus.snoop_filter.hitSingleRequests            0                       # Number of requests hitting in the snoop filter with a single holder of the requested data. (Count)
board.processor.cores.mmu_bus.snoop_filter.hitMultiRequests            0                       # Number of requests hitting in the snoop filter with multiple (>1) holders of the requested data. (Count)
board.processor.cores.mmu_bus.snoop_filter.totSnoops            0                       # Total number of snoops made to the snoop filter. (Count)
board.processor.cores.mmu_bus.snoop_filter.hitSingleSnoops            0                       # Number of snoops hitting in the snoop filter with a single holder of the requested data. (Count)
board.processor.cores.mmu_bus.snoop_filter.hitMultiSnoops            0                       # Number of snoops hitting in the snoop filter with multiple (>1) holders of the requested data. (Count)
board.processor.cores.mmu_cache.blockedCycles::no_mshrs            0                       # number of cycles access was blocked (Cycle)
board.processor.cores.mmu_cache.blockedCycles::no_targets            0                       # number of cycles access was blocked (Cycle)
board.processor.cores.mmu_cache.blockedCauses::no_mshrs            0                       # number of times access was blocked (Count)
board.processor.cores.mmu_cache.blockedCauses::no_targets            0                       # number of times access was blocked (Count)
board.processor.cores.mmu_cache.avgBlocked::no_mshrs          nan                       # average number of cycles each access was blocked ((Cycle/Count))
board.processor.cores.mmu_cache.avgBlocked::no_targets          nan                       # average number of cycles each access was blocked ((Cycle/Count))
board.processor.cores.mmu_cache.replacements            0                       # number of replacements (Count)
board.processor.cores.mmu_cache.power_state.pwrStateResidencyTicks::UNDEFINED   4016479000                       # Cumulative time (in ticks) in various power states (Tick)
board.processor.cores.mmu_cache.tags.tagsInUse            0                       # Average ticks per tags in use ((Tick/Count))
board.processor.cores.mmu_cache.tags.totalRefs            0                       # Total number of references to valid blocks. (Count)
board.processor.cores.mmu_cache.tags.sampledRefs            0                       # Sample count of references to valid blocks. (Count)
board.processor.cores.mmu_cache.tags.avgRefs          nan                       # Average number of references to valid blocks. ((Count/Count))
board.processor.cores.mmu_cache.tags.warmupTick            0                       # The tick when the warmup percentage was hit. (Tick)
board.processor.cores.mmu_cache.tags.tagAccesses            0                       # Number of tag accesses (Count)
board.processor.cores.mmu_cache.tags.dataAccesses            0                       # Number of data accesses (Count)
board.processor.cores.mmu_cache.tags.power_state.pwrStateResidencyTicks::UNDEFINED   4016479000                       # Cumulative time (in ticks) in various power states (Tick)
board.workload.inst.arm                             0                       # number of arm instructions executed (Count)
board.workload.inst.quiesce                         0                       # number of quiesce instructions executed (Count)

---------- End Simulation Statistics   ----------
