
---------- Begin Simulation Statistics ----------
simSeconds                                   0.003895                       # Number of seconds simulated (Second)
simTicks                                   3895321000                       # Number of ticks simulated (Tick)
finalTick                                  3895321000                       # Number of ticks from beginning of simulation (restored from checkpoints and never reset) (Tick)
simFreq                                  1000000000000                       # The number of ticks per simulated second ((Tick/Second))
hostSeconds                                     21.29                       # Real time elapsed on the host (Second)
hostTickRate                                182981918                       # The number of ticks simulated per host second (ticks/s) ((Tick/Second))
hostMemory                                    8536484                       # Number of bytes of host memory used (Byte)
simInsts                                     10378055                       # Number of instructions simulated (Count)
simOps                                       10502271                       # Number of ops (including micro ops) simulated (Count)
hostInstRate                                   487499                       # Simulator instruction rate (inst/s) ((Count/Second))
hostOpRate                                     493332                       # Simulator op (including micro ops) rate (op/s) ((Count/Second))
board.cache_hierarchy.membus.transDist::ReadResp        50353                       # Transaction distribution (Count)
board.cache_hierarchy.membus.transDist::WritebackDirty         4637                       # Transaction distribution (Count)
board.cache_hierarchy.membus.transDist::CleanEvict        48494                       # Transaction distribution (Count)
board.cache_hierarchy.membus.transDist::ReadExReq         3862                       # Transaction distribution (Count)
board.cache_hierarchy.membus.transDist::ReadExResp         3862                       # Transaction distribution (Count)
board.cache_hierarchy.membus.transDist::ReadSharedReq        50354                       # Transaction distribution (Count)
board.cache_hierarchy.membus.transDist::InvalidateReq           24                       # Transaction distribution (Count)
board.cache_hierarchy.membus.pktCount_board.processor.cores.l2.mem_side_port::board.memory.mem_ctrl.port       161586                       # Packet count per connected requestor and responder (Count)
board.cache_hierarchy.membus.pktCount::total       161586                       # Packet count per connected requestor and responder (Count)
board.cache_hierarchy.membus.pktSize_board.processor.cores.l2.mem_side_port::board.memory.mem_ctrl.port      1883264                       # Cumulative packet size per connected requestor and responder (Byte)
board.cache_hierarchy.membus.pktSize::total      1883264                       # Cumulative packet size per connected requestor and responder (Byte)
board.cache_hierarchy.membus.snoops                 0                       # Total snoops (Count)
board.cache_hierarchy.membus.snoopTraffic            0                       # Total snoop traffic (Byte)
board.cache_hierarchy.membus.snoopFanout::samples        54240                       # Request fanout histogram (Count)
board.cache_hierarchy.membus.snoopFanout::mean            0                       # Request fanout histogram (Count)
board.cache_hierarchy.membus.snoopFanout::stdev            0                       # Request fanout histogram (Count)
board.cache_hierarchy.membus.snoopFanout::underflows            0      0.00%      0.00% # Request fanout histogram (Count)
board.cache_hierarchy.membus.snoopFanout::0        54240    100.00%    100.00% # Request fanout histogram (Count)
board.cache_hierarchy.membus.snoopFanout::1            0      0.00%    100.00% # Request fanout histogram (Count)
board.cache_hierarchy.membus.snoopFanout::2            0      0.00%    100.00% # Request fanout histogram (Count)
board.cache_hierarchy.membus.snoopFanout::overflows            0      0.00%    100.00% # Request fanout histogram (Count)
board.cache_hierarchy.membus.snoopFanout::min_value            0                       # Request fanout histogram (Count)
board.cache_hierarchy.membus.snoopFanout::max_value            0                       # Request fanout histogram (Count)
board.cache_hierarchy.membus.snoopFanout::total        54240                       # Request fanout histogram (Count)
board.cache_hierarchy.membus.power_state.pwrStateResidencyTicks::UNDEFINED   3895321000                       # Cumulative time (in ticks) in various power states (Tick)
board.cache_hierarchy.membus.reqLayer0.occupancy    117360857                       # Layer occupancy (ticks) (Tick)
board.cache_hierarchy.membus.reqLayer0.utilization          0.0                       # Layer utilization (Ratio)
board.cache_hierarchy.membus.respLayer1.occupancy    176745399                       # Layer occupancy (ticks) (Tick)
board.cache_hierarchy.membus.respLayer1.utilization          0.0                       # Layer utilization (Ratio)
board.cache_hierarchy.membus.snoop_filter.totRequests       107371                       # Total number of requests made to the snoop filter. (Count)
board.cache_hierarchy.membus.snoop_filter.hitSingleRequests        53136                       # Number of requests hitting in the snoop filter with a single holder of the requested data. (Count)
board.cache_hierarchy.membus.snoop_filter.hitMultiRequests            0                       # Number of requests hitting in the snoop filter with multiple (>1) holders of the requested data. (Count)
board.cache_hierarchy.membus.snoop_filter.totSnoops            0                       # Total number of snoops made to the snoop filter. (Count)
board.cache_hierarchy.membus.snoop_filter.hitSingleSnoops            0                       # Number of snoops hitting in the snoop filter with a single holder of the requested data. (Count)
board.cache_hierarchy.membus.snoop_filter.hitMultiSnoops            0                       # Number of snoops hitting in the snoop filter with multiple (>1) holders of the requested data. (Count)
board.clk_domain.clock                           1000                       # Clock period in ticks (Tick)
board.clk_domain.voltage_domain.voltage             1                       # Voltage in Volts (Volt)
board.memory.mem_ctrl.avgPriority_writebacks::samples      1416.00                       # Average QoS priority value for accepted requests (Count)
board.memory.mem_ctrl.avgPriority_processor.cores.core.inst::samples       803.00                       # Average QoS priority value for accepted requests (Count)
board.memory.mem_ctrl.avgPriority_processor.cores.core.data::samples     11514.00                       # Average QoS priority value for accepted requests (Count)
board.memory.mem_ctrl.avgPriority_processor.cores.l1d.prefetcher::samples     35180.00                       # Average QoS priority value for accepted requests (Count)
board.memory.mem_ctrl.avgPriority_processor.cores.l2.prefetcher::samples      2537.00                       # Average QoS priority value for accepted requests (Count)
board.memory.mem_ctrl.priorityMinLatency 0.000000018750                       # per QoS priority minimum request to response latency (Second)
board.memory.mem_ctrl.priorityMaxLatency 0.000939800500                       # per QoS priority maximum request to response latency (Second)
board.memory.mem_ctrl.numReadWriteTurnArounds           82                       # Number of turnarounds from READ to WRITE (Count)
board.memory.mem_ctrl.numWriteReadTurnArounds           82                       # Number of turnarounds from WRITE to READ (Count)
board.memory.mem_ctrl.numStayReadState         102941                       # Number of times bus staying in READ state (Count)
board.memory.mem_ctrl.numStayWriteState          1310                       # Number of times bus staying in WRITE state (Count)
board.memory.mem_ctrl.readReqs                  54216                       # Number of read requests accepted (Count)
board.memory.mem_ctrl.writeReqs                  4637                       # Number of write requests accepted (Count)
board.memory.mem_ctrl.readBursts                54216                       # Number of controller read bursts, including those serviced by the write queue (Count)
board.memory.mem_ctrl.writeBursts                4637                       # Number of controller write bursts, including those merged in the write queue (Count)
board.memory.mem_ctrl.servicedByWrQ              4182                       # Number of controller read bursts serviced by the write queue (Count)
board.memory.mem_ctrl.mergedWrBursts             3221                       # Number of controller write bursts merged with an existing one (Count)
board.memory.mem_ctrl.neitherReadNorWriteReqs            0                       # Number of requests that are neither read nor write (Count)
board.memory.mem_ctrl.avgRdQLen                  2.04                       # Average read queue length when enqueuing ((Count/Tick))
board.memory.mem_ctrl.avgWrQLen                 25.58                       # Average write queue length when enqueuing ((Count/Tick))
board.memory.mem_ctrl.numRdRetry                    0                       # Number of times read queue was full causing retry (Count)
board.memory.mem_ctrl.numWrRetry                    0                       # Number of times write queue was full causing retry (Count)
board.memory.mem_ctrl.readPktSize::0                0                       # Read request sizes (log2) (Count)
board.memory.mem_ctrl.readPktSize::1                0                       # Read request sizes (log2) (Count)
board.memory.mem_ctrl.readPktSize::2                0                       # Read request sizes (log2) (Count)
board.memory.mem_ctrl.readPktSize::3                0                       # Read request sizes (log2) (Count)
board.memory.mem_ctrl.readPktSize::4                0                       # Read request sizes (log2) (Count)
board.memory.mem_ctrl.readPktSize::5            54216                       # Read request sizes (log2) (Count)
board.memory.mem_ctrl.writePktSize::0               0                       # Write request sizes (log2) (Count)
board.memory.mem_ctrl.writePktSize::1               0                       # Write request sizes (log2) (Count)
board.memory.mem_ctrl.writePktSize::2               0                       # Write request sizes (log2) (Count)
board.memory.mem_ctrl.writePktSize::3               0                       # Write request sizes (log2) (Count)
board.memory.mem_ctrl.writePktSize::4               0                       # Write request sizes (log2) (Count)
board.memory.mem_ctrl.writePktSize::5            4637                       # Write request sizes (log2) (Count)
board.memory.mem_ctrl.rdQLenPdf::0              19105                       # What read queue length does an incoming req see (Count)
board.memory.mem_ctrl.rdQLenPdf::1              11241                       # What read queue length does an incoming req see (Count)
board.memory.mem_ctrl.rdQLenPdf::2               9123                       # What read queue length does an incoming req see (Count)
board.memory.mem_ctrl.rdQLenPdf::3               6832                       # What read queue length does an incoming req see (Count)
board.memory.mem_ctrl.rdQLenPdf::4               2524                       # What read queue length does an incoming req see (Count)
board.memory.mem_ctrl.rdQLenPdf::5                495                       # What read queue length does an incoming req see (Count)
board.memory.mem_ctrl.rdQLenPdf::6                278                       # What read queue length does an incoming req see (Count)
board.memory.mem_ctrl.rdQLenPdf::7                173                       # What read queue length does an incoming req see (Count)
board.memory.mem_ctrl.rdQLenPdf::8                123                       # What read queue length does an incoming req see (Count)
board.memory.mem_ctrl.rdQLenPdf::9                 66                       # What read queue length does an incoming req see (Count)
board.memory.mem_ctrl.rdQLenPdf::10                16                       # What read queue length does an incoming req see (Count)
board.memory.mem_ctrl.rdQLenPdf::11                19                       # What read queue length does an incoming req see (Count)
board.memory.mem_ctrl.rdQLenPdf::12                10                       # What read queue length does an incoming req see (Count)
board.memory.mem_ctrl.rdQLenPdf::13                 9                       # What read queue length does an incoming req see (Count)
board.memory.mem_ctrl.rdQLenPdf::14                 8                       # What read queue length does an incoming req see (Count)
board.memory.mem_ctrl.rdQLenPdf::15                 5                       # What read queue length does an incoming req see (Count)
board.memory.mem_ctrl.rdQLenPdf::16                 4                       # What read queue length does an incoming req see (Count)
board.memory.mem_ctrl.rdQLenPdf::17                 3                       # What read queue length does an incoming req see (Count)
board.memory.mem_ctrl.rdQLenPdf::18                 0                       # What read queue length does an incoming req see (Count)
board.memory.mem_ctrl.rdQLenPdf::19                 0                       # What read queue length does an incoming req see (Count)
board.memory.mem_ctrl.rdQLenPdf::20                 0                       # What read queue length does an incoming req see (Count)
board.memory.mem_ctrl.rdQLenPdf::21                 0                       # What read queue length does an incoming req see (Count)
board.memory.mem_ctrl.rdQLenPdf::22                 0                       # What read queue length does an incoming req see (Count)
board.memory.mem_ctrl.rdQLenPdf::23                 0                       # What read queue length does an incoming req see (Count)
board.memory.mem_ctrl.rdQLenPdf::24                 0                       # What read queue length does an incoming req see (Count)
board.memory.mem_ctrl.rdQLenPdf::25                 0                       # What read queue length does an incoming req see (Count)
board.memory.mem_ctrl.rdQLenPdf::26                 0                       # What read queue length does an incoming req see (Count)
board.memory.mem_ctrl.rdQLenPdf::27                 0                       # What read queue length does an incoming req see (Count)
board.memory.mem_ctrl.rdQLenPdf::28                 0                       # What read queue length does an incoming req see (Count)
board.memory.mem_ctrl.rdQLenPdf::29                 0                       # What read queue length does an incoming req see (Count)
board.memory.mem_ctrl.rdQLenPdf::30                 0                       # What read queue length does an incoming req see (Count)
board.memory.mem_ctrl.rdQLenPdf::31                 0                       # What read queue length does an incoming req see (Count)
board.memory.mem_ctrl.wrQLenPdf::0                  1                       # What write queue length does an incoming req see (Count)
board.memory.mem_ctrl.wrQLenPdf::1                  1                       # What write queue length does an incoming req see (Count)
board.memory.mem_ctrl.wrQLenPdf::2                  1                       # What write queue length does an incoming req see (Count)
board.memory.mem_ctrl.wrQLenPdf::3                  1                       # What write queue length does an incoming req see (Count)
board.memory.mem_ctrl.wrQLenPdf::4                  1                       # What write queue length does an incoming req see (Count)
board.memory.mem_ctrl.wrQLenPdf::5                  1                       # What write queue length does an incoming req see (Count)
board.memory.mem_ctrl.wrQLenPdf::6                  1                       # What write queue length does an incoming req see (Count)
board.memory.mem_ctrl.wrQLenPdf::7                  1                       # What write queue length does an incoming req see (Count)
board.memory.mem_ctrl.wrQLenPdf::8                  1                       # What write queue length does an incoming req see (Count)
board.memory.mem_ctrl.wrQLenPdf::9                  1                       # What write queue length does an incoming req see (Count)
board.memory.mem_ctrl.wrQLenPdf::10                 1                       # What write queue length does an incoming req see (Count)
board.memory.mem_ctrl.wrQLenPdf::11                 1                       # What write queue length does an incoming req see (Count)
board.memory.mem_ctrl.wrQLenPdf::12                 1                       # What write queue length does an incoming req see (Count)
board.memory.mem_ctrl.wrQLenPdf::13                 1                       # What write queue length does an incoming req see (Count)
board.memory.mem_ctrl.wrQLenPdf::14                 1                       # What write queue length does an incoming req see (Count)
board.memory.mem_ctrl.wrQLenPdf::15                28                       # What write queue length does an incoming req see (Count)
board.memory.mem_ctrl.wrQLenPdf::16                34                       # What write queue length does an incoming req see (Count)
board.memory.mem_ctrl.wrQLenPdf::17                65                       # What write queue length does an incoming req see (Count)
board.memory.mem_ctrl.wrQLenPdf::18                76                       # What write queue length does an incoming req see (Count)
board.memory.mem_ctrl.wrQLenPdf::19                78                       # What write queue length does an incoming req see (Count)
board.memory.mem_ctrl.wrQLenPdf::20                79                       # What write queue length does an incoming req see (Count)
board.memory.mem_ctrl.wrQLenPdf::21                84                       # What write queue length does an incoming req see (Count)
board.memory.mem_ctrl.wrQLenPdf::22                83                       # What write queue length does an incoming req see (Count)
board.memory.mem_ctrl.wrQLenPdf::23                86                       # What write queue length does an incoming req see (Count)
board.memory.mem_ctrl.wrQLenPdf::24                95                       # What write queue length does an incoming req see (Count)
board.memory.mem_ctrl.wrQLenPdf::25                96                       # What write queue length does an incoming req see (Count)
board.memory.mem_ctrl.wrQLenPdf::26                88                       # What write queue length does an incoming req see (Count)
board.memory.mem_ctrl.wrQLenPdf::27                86                       # What write queue length does an incoming req see (Count)
board.memory.mem_ctrl.wrQLenPdf::28                83                       # What write queue length does an incoming req see (Count)
board.memory.mem_ctrl.wrQLenPdf::29                87                       # What write queue length does an incoming req see (Count)
board.memory.mem_ctrl.wrQLenPdf::30                84                       # What write queue length does an incoming req see (Count)
board.memory.mem_ctrl.wrQLenPdf::31                83                       # What write queue length does an incoming req see (Count)
board.memory.mem_ctrl.wrQLenPdf::32                82                       # What write queue length does an incoming req see (Count)
board.memory.mem_ctrl.wrQLenPdf::33                 3                       # What write queue length does an incoming req see (Count)
board.memory.mem_ctrl.wrQLenPdf::34                 1                       # What write queue length does an incoming req see (Count)
board.memory.mem_ctrl.wrQLenPdf::35                 0                       # What write queue length does an incoming req see (Count)
board.memory.mem_ctrl.wrQLenPdf::36                 0                       # What write queue length does an incoming req see (Count)
board.memory.mem_ctrl.wrQLenPdf::37                 0                       # What write queue length does an incoming req see (Count)
board.memory.mem_ctrl.wrQLenPdf::38                 0                       # What write queue length does an incoming req see (Count)
board.memory.mem_ctrl.wrQLenPdf::39                 0                       # What write queue length does an incoming req see (Count)
board.memory.mem_ctrl.wrQLenPdf::40                 0                       # What write queue length does an incoming req see (Count)
board.memory.mem_ctrl.wrQLenPdf::41                 0                       # What write queue length does an incoming req see (Count)
board.memory.mem_ctrl.wrQLenPdf::42                 0                       # What write queue length does an incoming req see (Count)
board.memory.mem_ctrl.wrQLenPdf::43                 0                       # What write queue length does an incoming req see (Count)
board.memory.mem_ctrl.wrQLenPdf::44                 0                       # What write queue length does an incoming req see (Count)
board.memory.mem_ctrl.wrQLenPdf::45                 0                       # What write queue length does an incoming req see (Count)
board.memory.mem_ctrl.wrQLenPdf::46                 0                       # What write queue length does an incoming req see (Count)
board.memory.mem_ctrl.wrQLenPdf::47                 0                       # What write queue length does an incoming req see (Count)
board.memory.mem_ctrl.wrQLenPdf::48                 0                       # What write queue length does an incoming req see (Count)
board.memory.mem_ctrl.wrQLenPdf::49                 0                       # What write queue length does an incoming req see (Count)
board.memory.mem_ctrl.wrQLenPdf::50                 0                       # What write queue length does an incoming req see (Count)
board.memory.mem_ctrl.wrQLenPdf::51                 0                       # What write queue length does an incoming req see (Count)
board.memory.mem_ctrl.wrQLenPdf::52                 0                       # What write queue length does an incoming req see (Count)
board.memory.mem_ctrl.wrQLenPdf::53                 0                       # What write queue length does an incoming req see (Count)
board.memory.mem_ctrl.wrQLenPdf::54                 0                       # What write queue length does an incoming req see (Count)
board.memory.mem_ctrl.wrQLenPdf::55                 0                       # What write queue length does an incoming req see (Count)
board.memory.mem_ctrl.wrQLenPdf::56                 0                       # What write queue length does an incoming req see (Count)
board.memory.mem_ctrl.wrQLenPdf::57                 0                       # What write queue length does an incoming req see (Count)
board.memory.mem_ctrl.wrQLenPdf::58                 0                       # What write queue length does an incoming req see (Count)
board.memory.mem_ctrl.wrQLenPdf::59                 0                       # What write queue length does an incoming req see (Count)
board.memory.mem_ctrl.wrQLenPdf::60                 0                       # What write queue length does an incoming req see (Count)
board.memory.mem_ctrl.wrQLenPdf::61                 0                       # What write queue length does an incoming req see (Count)
board.memory.mem_ctrl.wrQLenPdf::62                 0                       # What write queue length does an incoming req see (Count)
board.memory.mem_ctrl.wrQLenPdf::63                 0                       # What write queue length does an incoming req see (Count)
board.memory.mem_ctrl.rdPerTurnAround::samples           82                       # Reads before turning the bus around for writes (Count)
board.memory.mem_ctrl.rdPerTurnAround::mean   609.987805                       # Reads before turning the bus around for writes (Count)
board.memory.mem_ctrl.rdPerTurnAround::gmean   318.729777                       # Reads before turning the bus around for writes (Count)
board.memory.mem_ctrl.rdPerTurnAround::stdev   438.389688                       # Reads before turning the bus around for writes (Count)
board.memory.mem_ctrl.rdPerTurnAround::0-63           18     21.95%     21.95% # Reads before turning the bus around for writes (Count)
board.memory.mem_ctrl.rdPerTurnAround::64-127            2      2.44%     24.39% # Reads before turning the bus around for writes (Count)
board.memory.mem_ctrl.rdPerTurnAround::192-255            1      1.22%     25.61% # Reads before turning the bus around for writes (Count)
board.memory.mem_ctrl.rdPerTurnAround::256-319            2      2.44%     28.05% # Reads before turning the bus around for writes (Count)
board.memory.mem_ctrl.rdPerTurnAround::320-383            1      1.22%     29.27% # Reads before turning the bus around for writes (Count)
board.memory.mem_ctrl.rdPerTurnAround::384-447            1      1.22%     30.49% # Reads before turning the bus around for writes (Count)
board.memory.mem_ctrl.rdPerTurnAround::448-511            3      3.66%     34.15% # Reads before turning the bus around for writes (Count)
board.memory.mem_ctrl.rdPerTurnAround::512-575            6      7.32%     41.46% # Reads before turning the bus around for writes (Count)
board.memory.mem_ctrl.rdPerTurnAround::576-639            4      4.88%     46.34% # Reads before turning the bus around for writes (Count)
board.memory.mem_ctrl.rdPerTurnAround::640-703            8      9.76%     56.10% # Reads before turning the bus around for writes (Count)
board.memory.mem_ctrl.rdPerTurnAround::704-767           10     12.20%     68.29% # Reads before turning the bus around for writes (Count)
board.memory.mem_ctrl.rdPerTurnAround::768-831            6      7.32%     75.61% # Reads before turning the bus around for writes (Count)
board.memory.mem_ctrl.rdPerTurnAround::832-895            5      6.10%     81.71% # Reads before turning the bus around for writes (Count)
board.memory.mem_ctrl.rdPerTurnAround::896-959            1      1.22%     82.93% # Reads before turning the bus around for writes (Count)
board.memory.mem_ctrl.rdPerTurnAround::960-1023            3      3.66%     86.59% # Reads before turning the bus around for writes (Count)
board.memory.mem_ctrl.rdPerTurnAround::1024-1087            1      1.22%     87.80% # Reads before turning the bus around for writes (Count)
board.memory.mem_ctrl.rdPerTurnAround::1088-1151            1      1.22%     89.02% # Reads before turning the bus around for writes (Count)
board.memory.mem_ctrl.rdPerTurnAround::1152-1215            3      3.66%     92.68% # Reads before turning the bus around for writes (Count)
board.memory.mem_ctrl.rdPerTurnAround::1344-1407            1      1.22%     93.90% # Reads before turning the bus around for writes (Count)
board.memory.mem_ctrl.rdPerTurnAround::1408-1471            1      1.22%     95.12% # Reads before turning the bus around for writes (Count)
board.memory.mem_ctrl.rdPerTurnAround::1600-1663            3      3.66%     98.78% # Reads before turning the bus around for writes (Count)
board.memory.mem_ctrl.rdPerTurnAround::1728-1791            1      1.22%    100.00% # Reads before turning the bus around for writes (Count)
board.memory.mem_ctrl.rdPerTurnAround::total           82                       # Reads before turning the bus around for writes (Count)
board.memory.mem_ctrl.wrPerTurnAround::samples           82                       # Writes before turning the bus around for reads (Count)
board.memory.mem_ctrl.wrPerTurnAround::mean    16.975610                       # Writes before turning the bus around for reads (Count)
board.memory.mem_ctrl.wrPerTurnAround::gmean    16.929317                       # Writes before turning the bus around for reads (Count)
board.memory.mem_ctrl.wrPerTurnAround::stdev     1.295535                       # Writes before turning the bus around for reads (Count)
board.memory.mem_ctrl.wrPerTurnAround::16           47     57.32%     57.32% # Writes before turning the bus around for reads (Count)
board.memory.mem_ctrl.wrPerTurnAround::17            4      4.88%     62.20% # Writes before turning the bus around for reads (Count)
board.memory.mem_ctrl.wrPerTurnAround::18           22     26.83%     89.02% # Writes before turning the bus around for reads (Count)
board.memory.mem_ctrl.wrPerTurnAround::19            6      7.32%     96.34% # Writes before turning the bus around for reads (Count)
board.memory.mem_ctrl.wrPerTurnAround::20            2      2.44%     98.78% # Writes before turning the bus around for reads (Count)
board.memory.mem_ctrl.wrPerTurnAround::22            1      1.22%    100.00% # Writes before turning the bus around for reads (Count)
board.memory.mem_ctrl.wrPerTurnAround::total           82                       # Writes before turning the bus around for reads (Count)
board.memory.mem_ctrl.bytesReadWrQ             267648                       # Total number of bytes read from write queue (Byte)
board.memory.mem_ctrl.bytesReadSys            1734912                       # Total read bytes from the system interface side (Byte)
board.memory.mem_ctrl.bytesWrittenSys          148384                       # Total written bytes from the system interface side (Byte)
board.memory.mem_ctrl.avgRdBWSys         445383576.86054623                       # Average system read bandwidth in Byte/s ((Byte/Second))
board.memory.mem_ctrl.avgWrBWSys         38092881.17718668                       # Average system write bandwidth in Byte/s ((Byte/Second))
board.memory.mem_ctrl.totGap               3895289000                       # Total gap between requests (Tick)
board.memory.mem_ctrl.avgGap                 66186.75                       # Average gap between requests ((Tick/Count))
board.memory.mem_ctrl.requestorReadBytes::processor.cores.core.inst        25696                       # Per-requestor bytes read from memory (Byte)
board.memory.mem_ctrl.requestorReadBytes::processor.cores.core.data       368448                       # Per-requestor bytes read from memory (Byte)
board.memory.mem_ctrl.requestorReadBytes::processor.cores.l1d.prefetcher      1125760                       # Per-requestor bytes read from memory (Byte)
board.memory.mem_ctrl.requestorReadBytes::processor.cores.l2.prefetcher        81184                       # Per-requestor bytes read from memory (Byte)
board.memory.mem_ctrl.requestorWriteBytes::writebacks        44544                       # Per-requestor bytes write to memory (Byte)
board.memory.mem_ctrl.requestorReadRate::processor.cores.core.inst 6596632.215932910331                       # Per-requestor bytes read from memory rate ((Byte/Second))
board.memory.mem_ctrl.requestorReadRate::processor.cores.core.data 94587326.692716717720                       # Per-requestor bytes read from memory rate ((Byte/Second))
board.memory.mem_ctrl.requestorReadRate::processor.cores.l1d.prefetcher 289003139.920946180820                       # Per-requestor bytes read from memory rate ((Byte/Second))
board.memory.mem_ctrl.requestorReadRate::processor.cores.l2.prefetcher 20841414.609989777207                       # Per-requestor bytes read from memory rate ((Byte/Second))
board.memory.mem_ctrl.requestorWriteRate::writebacks 11435257.838827660307                       # Per-requestor bytes write to memory rate ((Byte/Second))
board.memory.mem_ctrl.requestorReadAccesses::processor.cores.core.inst          803                       # Per-requestor read serviced memory accesses (Count)
board.memory.mem_ctrl.requestorReadAccesses::processor.cores.core.data        13371                       # Per-requestor read serviced memory accesses (Count)
board.memory.mem_ctrl.requestorReadAccesses::processor.cores.l1d.prefetcher        36429                       # Per-requestor read serviced memory accesses (Count)
board.memory.mem_ctrl.requestorReadAccesses::processor.cores.l2.prefetcher         3613                       # Per-requestor read serviced memory accesses (Count)
board.memory.mem_ctrl.requestorWriteAccesses::writebacks         4637                       # Per-requestor write serviced memory accesses (Count)
board.memory.mem_ctrl.requestorReadTotalLat::processor.cores.core.inst     22481500                       # Per-requestor read total memory access latency (Tick)
board.memory.mem_ctrl.requestorReadTotalLat::processor.cores.core.data    277950131                       # Per-requestor read total memory access latency (Tick)
board.memory.mem_ctrl.requestorReadTotalLat::processor.cores.l1d.prefetcher   1150199438                       # Per-requestor read total memory access latency (Tick)
board.memory.mem_ctrl.requestorReadTotalLat::processor.cores.l2.prefetcher     79666532                       # Per-requestor read total memory access latency (Tick)
board.memory.mem_ctrl.requestorWriteTotalLat::writebacks  98237098266                       # Per-requestor write total memory access latency (Tick)
board.memory.mem_ctrl.requestorReadAvgLat::processor.cores.core.inst     27996.89                       # Per-requestor read average memory access latency ((Tick/Count))
board.memory.mem_ctrl.requestorReadAvgLat::processor.cores.core.data     20787.54                       # Per-requestor read average memory access latency ((Tick/Count))
board.memory.mem_ctrl.requestorReadAvgLat::processor.cores.l1d.prefetcher     31573.73                       # Per-requestor read average memory access latency ((Tick/Count))
board.memory.mem_ctrl.requestorReadAvgLat::processor.cores.l2.prefetcher     22049.97                       # Per-requestor read average memory access latency ((Tick/Count))
board.memory.mem_ctrl.requestorWriteAvgLat::writebacks  21185485.93                       # Per-requestor write average memory access latency ((Tick/Count))
board.memory.mem_ctrl.dram.bytesRead::processor.cores.core.inst        25696                       # Number of bytes read from this memory (Byte)
board.memory.mem_ctrl.dram.bytesRead::processor.cores.core.data       427872                       # Number of bytes read from this memory (Byte)
board.memory.mem_ctrl.dram.bytesRead::processor.cores.l1d.prefetcher      1165728                       # Number of bytes read from this memory (Byte)
board.memory.mem_ctrl.dram.bytesRead::processor.cores.l2.prefetcher       115616                       # Number of bytes read from this memory (Byte)
board.memory.mem_ctrl.dram.bytesRead::total      1734912                       # Number of bytes read from this memory (Byte)
board.memory.mem_ctrl.dram.bytesInstRead::processor.cores.core.inst        25696                       # Number of instructions bytes read from this memory (Byte)
board.memory.mem_ctrl.dram.bytesInstRead::total        25696                       # Number of instructions bytes read from this memory (Byte)
board.memory.mem_ctrl.dram.bytesWritten::writebacks       148384                       # Number of bytes written to this memory (Byte)
board.memory.mem_ctrl.dram.bytesWritten::total       148384                       # Number of bytes written to this memory (Byte)
board.memory.mem_ctrl.dram.numReads::processor.cores.core.inst          803                       # Number of read requests responded to by this memory (Count)
board.memory.mem_ctrl.dram.numReads::processor.cores.core.data        13371                       # Number of read requests responded to by this memory (Count)
board.memory.mem_ctrl.dram.numReads::processor.cores.l1d.prefetcher        36429                       # Number of read requests responded to by this memory (Count)
board.memory.mem_ctrl.dram.numReads::processor.cores.l2.prefetcher         3613                       # Number of read requests responded to by this memory (Count)
board.memory.mem_ctrl.dram.numReads::total        54216                       # Number of read requests responded to by this memory (Count)
board.memory.mem_ctrl.dram.numWrites::writebacks         4637                       # Number of write requests responded to by this memory (Count)
board.memory.mem_ctrl.dram.numWrites::total         4637                       # Number of write requests responded to by this memory (Count)
board.memory.mem_ctrl.dram.bwRead::processor.cores.core.inst      6596632                       # Total read bandwidth from this memory ((Byte/Second))
board.memory.mem_ctrl.dram.bwRead::processor.cores.core.data    109842552                       # Total read bandwidth from this memory ((Byte/Second))
board.memory.mem_ctrl.dram.bwRead::processor.cores.l1d.prefetcher    299263655                       # Total read bandwidth from this memory ((Byte/Second))
board.memory.mem_ctrl.dram.bwRead::processor.cores.l2.prefetcher     29680737                       # Total read bandwidth from this memory ((Byte/Second))
board.memory.mem_ctrl.dram.bwRead::total    445383577                       # Total read bandwidth from this memory ((Byte/Second))
board.memory.mem_ctrl.dram.bwInstRead::processor.cores.core.inst      6596632                       # Instruction read bandwidth from this memory ((Byte/Second))
board.memory.mem_ctrl.dram.bwInstRead::total      6596632                       # Instruction read bandwidth from this memory ((Byte/Second))
board.memory.mem_ctrl.dram.bwWrite::writebacks     38092881                       # Write bandwidth from this memory ((Byte/Second))
board.memory.mem_ctrl.dram.bwWrite::total     38092881                       # Write bandwidth from this memory ((Byte/Second))
board.memory.mem_ctrl.dram.bwTotal::writebacks     38092881                       # Total bandwidth to/from this memory ((Byte/Second))
board.memory.mem_ctrl.dram.bwTotal::processor.cores.core.inst      6596632                       # Total bandwidth to/from this memory ((Byte/Second))
board.memory.mem_ctrl.dram.bwTotal::processor.cores.core.data    109842552                       # Total bandwidth to/from this memory ((Byte/Second))
board.memory.mem_ctrl.dram.bwTotal::processor.cores.l1d.prefetcher    299263655                       # Total bandwidth to/from this memory ((Byte/Second))
board.memory.mem_ctrl.dram.bwTotal::processor.cores.l2.prefetcher     29680737                       # Total bandwidth to/from this memory ((Byte/Second))
board.memory.mem_ctrl.dram.bwTotal::total    483476458                       # Total bandwidth to/from this memory ((Byte/Second))
board.memory.mem_ctrl.dram.readBursts           50034                       # Number of DRAM read bursts (Count)
board.memory.mem_ctrl.dram.writeBursts           1392                       # Number of DRAM write bursts (Count)
board.memory.mem_ctrl.dram.perBankRdBursts::0          151                       # Per bank write bursts (Count)
board.memory.mem_ctrl.dram.perBankRdBursts::1          135                       # Per bank write bursts (Count)
board.memory.mem_ctrl.dram.perBankRdBursts::2          260                       # Per bank write bursts (Count)
board.memory.mem_ctrl.dram.perBankRdBursts::3        13730                       # Per bank write bursts (Count)
board.memory.mem_ctrl.dram.perBankRdBursts::4        15126                       # Per bank write bursts (Count)
board.memory.mem_ctrl.dram.perBankRdBursts::5         1098                       # Per bank write bursts (Count)
board.memory.mem_ctrl.dram.perBankRdBursts::6          567                       # Per bank write bursts (Count)
board.memory.mem_ctrl.dram.perBankRdBursts::7         8555                       # Per bank write bursts (Count)
board.memory.mem_ctrl.dram.perBankRdBursts::8         9375                       # Per bank write bursts (Count)
board.memory.mem_ctrl.dram.perBankRdBursts::9          581                       # Per bank write bursts (Count)
board.memory.mem_ctrl.dram.perBankRdBursts::10           10                       # Per bank write bursts (Count)
board.memory.mem_ctrl.dram.perBankRdBursts::11           62                       # Per bank write bursts (Count)
board.memory.mem_ctrl.dram.perBankRdBursts::12          194                       # Per bank write bursts (Count)
board.memory.mem_ctrl.dram.perBankRdBursts::13           53                       # Per bank write bursts (Count)
board.memory.mem_ctrl.dram.perBankRdBursts::14           55                       # Per bank write bursts (Count)
board.memory.mem_ctrl.dram.perBankRdBursts::15           82                       # Per bank write bursts (Count)
board.memory.mem_ctrl.dram.perBankWrBursts::0            0                       # Per bank write bursts (Count)
board.memory.mem_ctrl.dram.perBankWrBursts::1            9                       # Per bank write bursts (Count)
board.memory.mem_ctrl.dram.perBankWrBursts::2           70                       # Per bank write bursts (Count)
board.memory.mem_ctrl.dram.perBankWrBursts::3          239                       # Per bank write bursts (Count)
board.memory.mem_ctrl.dram.perBankWrBursts::4          263                       # Per bank write bursts (Count)
board.memory.mem_ctrl.dram.perBankWrBursts::5           82                       # Per bank write bursts (Count)
board.memory.mem_ctrl.dram.perBankWrBursts::6           79                       # Per bank write bursts (Count)
board.memory.mem_ctrl.dram.perBankWrBursts::7          265                       # Per bank write bursts (Count)
board.memory.mem_ctrl.dram.perBankWrBursts::8          280                       # Per bank write bursts (Count)
board.memory.mem_ctrl.dram.perBankWrBursts::9           15                       # Per bank write bursts (Count)
board.memory.mem_ctrl.dram.perBankWrBursts::10            0                       # Per bank write bursts (Count)
board.memory.mem_ctrl.dram.perBankWrBursts::11           15                       # Per bank write bursts (Count)
board.memory.mem_ctrl.dram.perBankWrBursts::12           59                       # Per bank write bursts (Count)
board.memory.mem_ctrl.dram.perBankWrBursts::13           15                       # Per bank write bursts (Count)
board.memory.mem_ctrl.dram.perBankWrBursts::14            1                       # Per bank write bursts (Count)
board.memory.mem_ctrl.dram.perBankWrBursts::15            0                       # Per bank write bursts (Count)
board.memory.mem_ctrl.dram.totQLat          592160101                       # Total ticks spent queuing (Tick)
board.memory.mem_ctrl.dram.totBusLat        250170000                       # Total ticks spent in databus transfers (Tick)
board.memory.mem_ctrl.dram.totMemAccLat    1530297601                       # Total ticks spent from burst creation until serviced by the DRAM (Tick)
board.memory.mem_ctrl.dram.avgQLat           11835.15                       # Average queueing delay per DRAM burst ((Tick/Count))
board.memory.mem_ctrl.dram.avgBusLat          5000.00                       # Average bus latency per DRAM burst ((Tick/Count))
board.memory.mem_ctrl.dram.avgMemAccLat      30585.15                       # Average memory access latency per DRAM burst ((Tick/Count))
board.memory.mem_ctrl.dram.readRowHits          46191                       # Number of row buffer hits during reads (Count)
board.memory.mem_ctrl.dram.writeRowHits          1256                       # Number of row buffer hits during writes (Count)
board.memory.mem_ctrl.dram.readRowHitRate        92.32                       # Row buffer hit rate for reads (Ratio)
board.memory.mem_ctrl.dram.writeRowHitRate        90.23                       # Row buffer hit rate for writes (Ratio)
board.memory.mem_ctrl.dram.bytesPerActivate::samples         3969                       # Bytes accessed per row activation (Byte)
board.memory.mem_ctrl.dram.bytesPerActivate::mean   828.775006                       # Bytes accessed per row activation (Byte)
board.memory.mem_ctrl.dram.bytesPerActivate::gmean   704.941689                       # Bytes accessed per row activation (Byte)
board.memory.mem_ctrl.dram.bytesPerActivate::stdev   316.637042                       # Bytes accessed per row activation (Byte)
board.memory.mem_ctrl.dram.bytesPerActivate::0-127          155      3.91%      3.91% # Bytes accessed per row activation (Byte)
board.memory.mem_ctrl.dram.bytesPerActivate::128-255          219      5.52%      9.42% # Bytes accessed per row activation (Byte)
board.memory.mem_ctrl.dram.bytesPerActivate::256-383          178      4.48%     13.91% # Bytes accessed per row activation (Byte)
board.memory.mem_ctrl.dram.bytesPerActivate::384-511          176      4.43%     18.34% # Bytes accessed per row activation (Byte)
board.memory.mem_ctrl.dram.bytesPerActivate::512-639          226      5.69%     24.04% # Bytes accessed per row activation (Byte)
board.memory.mem_ctrl.dram.bytesPerActivate::640-767          140      3.53%     27.56% # Bytes accessed per row activation (Byte)
board.memory.mem_ctrl.dram.bytesPerActivate::768-895          122      3.07%     30.64% # Bytes accessed per row activation (Byte)
board.memory.mem_ctrl.dram.bytesPerActivate::896-1023          111      2.80%     33.43% # Bytes accessed per row activation (Byte)
board.memory.mem_ctrl.dram.bytesPerActivate::1024-1151         2642     66.57%    100.00% # Bytes accessed per row activation (Byte)
board.memory.mem_ctrl.dram.bytesPerActivate::total         3969                       # Bytes accessed per row activation (Byte)
board.memory.mem_ctrl.dram.bytesRead          3202176                       # Total bytes read (Byte)
board.memory.mem_ctrl.dram.bytesWritten         89088                       # Total bytes written (Byte)
board.memory.mem_ctrl.dram.avgRdBW         822.057027                       # Average DRAM read bandwidth in MiBytes/s ((Byte/Second))
board.memory.mem_ctrl.dram.avgWrBW          22.870516                       # Average DRAM write bandwidth in MiBytes/s ((Byte/Second))
board.memory.mem_ctrl.dram.peakBW            12800.00                       # Theoretical peak bandwidth in MiByte/s ((Byte/Second))
board.memory.mem_ctrl.dram.busUtil               6.60                       # Data bus utilization in percentage (Ratio)
board.memory.mem_ctrl.dram.busUtilRead           6.42                       # Data bus utilization in percentage for reads (Ratio)
board.memory.mem_ctrl.dram.busUtilWrite          0.18                       # Data bus utilization in percentage for writes (Ratio)
board.memory.mem_ctrl.dram.pageHitRate          92.26                       # Row buffer hit rate, read and write combined (Ratio)
board.memory.mem_ctrl.dram.power_state.pwrStateResidencyTicks::UNDEFINED   3895321000                       # Cumulative time (in ticks) in various power states (Tick)
board.memory.mem_ctrl.dram.rank0.actEnergy     21855540                       # Energy for activate commands per rank (pJ) (Joule)
board.memory.mem_ctrl.dram.rank0.preEnergy     11593725                       # Energy for precharge commands per rank (pJ) (Joule)
board.memory.mem_ctrl.dram.rank0.readEnergy    282901080                       # Energy for read commands per rank (pJ) (Joule)
board.memory.mem_ctrl.dram.rank0.writeEnergy      5256540                       # Energy for write commands per rank (pJ) (Joule)
board.memory.mem_ctrl.dram.rank0.refreshEnergy 307320000.000000                       # Energy for refresh commands per rank (pJ) (Joule)
board.memory.mem_ctrl.dram.rank0.actBackEnergy   1706154210                       # Energy for active background per rank (pJ) (Joule)
board.memory.mem_ctrl.dram.rank0.preBackEnergy     59041920                       # Energy for precharge background per rank (pJ) (Joule)
board.memory.mem_ctrl.dram.rank0.actPowerDownEnergy            0                       # Energy for active power-down per rank (pJ) (Joule)
board.memory.mem_ctrl.dram.rank0.prePowerDownEnergy            0                       # Energy for precharge power-down per rank (pJ) (Joule)
board.memory.mem_ctrl.dram.rank0.selfRefreshEnergy            0                       # Energy for self refresh per rank (pJ) (Joule)
board.memory.mem_ctrl.dram.rank0.totalEnergy   2394123015                       # Total energy per rank (pJ) (Joule)
board.memory.mem_ctrl.dram.rank0.averagePower   614.615077                       # Core power per rank (mW) (Watt)
board.memory.mem_ctrl.dram.rank0.totalIdleTime            0                       # Total Idle time Per DRAM Rank (Tick)
board.memory.mem_ctrl.dram.rank0.pwrStateTime::IDLE    131608263                       # Time in different power states (Tick)
board.memory.mem_ctrl.dram.rank0.pwrStateTime::REF    130000000                       # Time in different power states (Tick)
board.memory.mem_ctrl.dram.rank0.pwrStateTime::SREF            0                       # Time in different power states (Tick)
board.memory.mem_ctrl.dram.rank0.pwrStateTime::PRE_PDN            0                       # Time in different power states (Tick)
board.memory.mem_ctrl.dram.rank0.pwrStateTime::ACT   3633712737                       # Time in different power states (Tick)
board.memory.mem_ctrl.dram.rank0.pwrStateTime::ACT_PDN            0                       # Time in different power states (Tick)
board.memory.mem_ctrl.dram.rank1.actEnergy      6554520                       # Energy for activate commands per rank (pJ) (Joule)
board.memory.mem_ctrl.dram.rank1.preEnergy      3468630                       # Energy for precharge commands per rank (pJ) (Joule)
board.memory.mem_ctrl.dram.rank1.readEnergy     74341680                       # Energy for read commands per rank (pJ) (Joule)
board.memory.mem_ctrl.dram.rank1.writeEnergy      2009700                       # Energy for write commands per rank (pJ) (Joule)
board.memory.mem_ctrl.dram.rank1.refreshEnergy 307320000.000000                       # Energy for refresh commands per rank (pJ) (Joule)
board.memory.mem_ctrl.dram.rank1.actBackEnergy    796327620                       # Energy for active background per rank (pJ) (Joule)
board.memory.mem_ctrl.dram.rank1.preBackEnergy    825211680                       # Energy for precharge background per rank (pJ) (Joule)
board.memory.mem_ctrl.dram.rank1.actPowerDownEnergy            0                       # Energy for active power-down per rank (pJ) (Joule)
board.memory.mem_ctrl.dram.rank1.prePowerDownEnergy            0                       # Energy for precharge power-down per rank (pJ) (Joule)
board.memory.mem_ctrl.dram.rank1.selfRefreshEnergy            0                       # Energy for self refresh per rank (pJ) (Joule)
board.memory.mem_ctrl.dram.rank1.totalEnergy   2015233830                       # Total energy per rank (pJ) (Joule)
board.memory.mem_ctrl.dram.rank1.averagePower   517.347307                       # Core power per rank (mW) (Watt)
board.memory.mem_ctrl.dram.rank1.totalIdleTime            0                       # Total Idle time Per DRAM Rank (Tick)
board.memory.mem_ctrl.dram.rank1.pwrStateTime::IDLE   2132240312                       # Time in different power states (Tick)
board.memory.mem_ctrl.dram.rank1.pwrStateTime::REF    130000000                       # Time in different power states (Tick)
board.memory.mem_ctrl.dram.rank1.pwrStateTime::SREF            0                       # Time in different power states (Tick)
board.memory.mem_ctrl.dram.rank1.pwrStateTime::PRE_PDN            0                       # Time in different power states (Tick)
board.memory.mem_ctrl.dram.rank1.pwrStateTime::ACT   1633080688                       # Time in different power states (Tick)
board.memory.mem_ctrl.dram.rank1.pwrStateTime::ACT_PDN            0                       # Time in different power states (Tick)
board.memory.mem_ctrl.power_state.pwrStateResidencyTicks::UNDEFINED   3895321000                       # Cumulative time (in ticks) in various power states (Tick)
board.processor.cores.core.numCycles          3895322                       # Number of cpu cycles simulated (Cycle)
board.processor.cores.core.cpi               0.375341                       # CPI: cycles per instruction (core level) ((Cycle/Count))
board.processor.cores.core.ipc               2.664247                       # IPC: instructions per cycle (core level) ((Count/Cycle))
board.processor.cores.core.numWorkItemsStarted            0                       # Number of work items this cpu started (Count)
board.processor.cores.core.numWorkItemsCompleted            0                       # Number of work items this cpu completed (Count)
board.processor.cores.core.instsAdded        10916245                       # Number of instructions added to the IQ (excludes non-spec) (Count)
board.processor.cores.core.nonSpecInstsAdded        41881                       # Number of non-speculative instructions added to the IQ (Count)
board.processor.cores.core.instsIssued       10789686                       # Number of instructions issued (Count)
board.processor.cores.core.squashedInstsIssued          133                       # Number of squashed instructions issued (Count)
board.processor.cores.core.squashedInstsExamined       455854                       # Number of squashed instructions iterated over during squash; mainly for profiling (Count)
board.processor.cores.core.squashedOperandsExamined       277999                       # Number of squashed operands that are examined and possibly removed from graph (Count)
board.processor.cores.core.squashedNonSpecRemoved         9060                       # Number of squashed non-spec instructions that were removed (Count)
board.processor.cores.core.numIssuedDist::samples      3871654                       # Number of insts issued each cycle (Count)
board.processor.cores.core.numIssuedDist::mean     2.786841                       # Number of insts issued each cycle (Count)
board.processor.cores.core.numIssuedDist::stdev     2.370236                       # Number of insts issued each cycle (Count)
board.processor.cores.core.numIssuedDist::underflows            0      0.00%      0.00% # Number of insts issued each cycle (Count)
board.processor.cores.core.numIssuedDist::0      1039109     26.84%     26.84% # Number of insts issued each cycle (Count)
board.processor.cores.core.numIssuedDist::1       548924     14.18%     41.02% # Number of insts issued each cycle (Count)
board.processor.cores.core.numIssuedDist::2       313466      8.10%     49.11% # Number of insts issued each cycle (Count)
board.processor.cores.core.numIssuedDist::3       334472      8.64%     57.75% # Number of insts issued each cycle (Count)
board.processor.cores.core.numIssuedDist::4       402740     10.40%     68.15% # Number of insts issued each cycle (Count)
board.processor.cores.core.numIssuedDist::5       629550     16.26%     84.42% # Number of insts issued each cycle (Count)
board.processor.cores.core.numIssuedDist::6       419492     10.83%     95.25% # Number of insts issued each cycle (Count)
board.processor.cores.core.numIssuedDist::7       136456      3.52%     98.77% # Number of insts issued each cycle (Count)
board.processor.cores.core.numIssuedDist::8        47445      1.23%    100.00% # Number of insts issued each cycle (Count)
board.processor.cores.core.numIssuedDist::overflows            0      0.00%    100.00% # Number of insts issued each cycle (Count)
board.processor.cores.core.numIssuedDist::min_value            0                       # Number of insts issued each cycle (Count)
board.processor.cores.core.numIssuedDist::max_value            8                       # Number of insts issued each cycle (Count)
board.processor.cores.core.numIssuedDist::total      3871654                       # Number of insts issued each cycle (Count)
board.processor.cores.core.statFuBusy::No_OpClass            0      0.00%      0.00% # attempts to use FU when none available (Count)
board.processor.cores.core.statFuBusy::IntAlu        19603      4.54%      4.54% # attempts to use FU when none available (Count)
board.processor.cores.core.statFuBusy::IntMult            0      0.00%      4.54% # attempts to use FU when none available (Count)
board.processor.cores.core.statFuBusy::IntDiv            0      0.00%      4.54% # attempts to use FU when none available (Count)
board.processor.cores.core.statFuBusy::FloatAdd            0      0.00%      4.54% # attempts to use FU when none available (Count)
board.processor.cores.core.statFuBusy::FloatCmp            0      0.00%      4.54% # attempts to use FU when none available (Count)
board.processor.cores.core.statFuBusy::FloatCvt            0      0.00%      4.54% # attempts to use FU when none available (Count)
board.processor.cores.core.statFuBusy::FloatMult            0      0.00%      4.54% # attempts to use FU when none available (Count)
board.processor.cores.core.statFuBusy::FloatMultAcc            0      0.00%      4.54% # attempts to use FU when none available (Count)
board.processor.cores.core.statFuBusy::FloatDiv            0      0.00%      4.54% # attempts to use FU when none available (Count)
board.processor.cores.core.statFuBusy::FloatMisc            0      0.00%      4.54% # attempts to use FU when none available (Count)
board.processor.cores.core.statFuBusy::FloatSqrt            0      0.00%      4.54% # attempts to use FU when none available (Count)
board.processor.cores.core.statFuBusy::SimdAdd            0      0.00%      4.54% # attempts to use FU when none available (Count)
board.processor.cores.core.statFuBusy::SimdAddAcc            0      0.00%      4.54% # attempts to use FU when none available (Count)
board.processor.cores.core.statFuBusy::SimdAlu            0      0.00%      4.54% # attempts to use FU when none available (Count)
board.processor.cores.core.statFuBusy::SimdCmp            0      0.00%      4.54% # attempts to use FU when none available (Count)
board.processor.cores.core.statFuBusy::SimdCvt            0      0.00%      4.54% # attempts to use FU when none available (Count)
board.processor.cores.core.statFuBusy::SimdMisc            0      0.00%      4.54% # attempts to use FU when none available (Count)
board.processor.cores.core.statFuBusy::SimdMult            0      0.00%      4.54% # attempts to use FU when none available (Count)
board.processor.cores.core.statFuBusy::SimdMultAcc            0      0.00%      4.54% # attempts to use FU when none available (Count)
board.processor.cores.core.statFuBusy::SimdMatMultAcc            0      0.00%      4.54% # attempts to use FU when none available (Count)
board.processor.cores.core.statFuBusy::SimdShift            0      0.00%      4.54% # attempts to use FU when none available (Count)
board.processor.cores.core.statFuBusy::SimdShiftAcc            0      0.00%      4.54% # attempts to use FU when none available (Count)
board.processor.cores.core.statFuBusy::SimdDiv            0      0.00%      4.54% # attempts to use FU when none available (Count)
board.processor.cores.core.statFuBusy::SimdSqrt            0      0.00%      4.54% # attempts to use FU when none available (Count)
board.processor.cores.core.statFuBusy::SimdFloatAdd            0      0.00%      4.54% # attempts to use FU when none available (Count)
board.processor.cores.core.statFuBusy::SimdFloatAlu            0      0.00%      4.54% # attempts to use FU when none available (Count)
board.processor.cores.core.statFuBusy::SimdFloatCmp            0      0.00%      4.54% # attempts to use FU when none available (Count)
board.processor.cores.core.statFuBusy::SimdFloatCvt            0      0.00%      4.54% # attempts to use FU when none available (Count)
board.processor.cores.core.statFuBusy::SimdFloatDiv            0      0.00%      4.54% # attempts to use FU when none available (Count)
board.processor.cores.core.statFuBusy::SimdFloatMisc            0      0.00%      4.54% # attempts to use FU when none available (Count)
board.processor.cores.core.statFuBusy::SimdFloatMult            0      0.00%      4.54% # attempts to use FU when none available (Count)
board.processor.cores.core.statFuBusy::SimdFloatMultAcc            0      0.00%      4.54% # attempts to use FU when none available (Count)
board.processor.cores.core.statFuBusy::SimdFloatMatMultAcc            0      0.00%      4.54% # attempts to use FU when none available (Count)
board.processor.cores.core.statFuBusy::SimdFloatSqrt            0      0.00%      4.54% # attempts to use FU when none available (Count)
board.processor.cores.core.statFuBusy::SimdReduceAdd            0      0.00%      4.54% # attempts to use FU when none available (Count)
board.processor.cores.core.statFuBusy::SimdReduceAlu            0      0.00%      4.54% # attempts to use FU when none available (Count)
board.processor.cores.core.statFuBusy::SimdReduceCmp            0      0.00%      4.54% # attempts to use FU when none available (Count)
board.processor.cores.core.statFuBusy::SimdFloatReduceAdd            0      0.00%      4.54% # attempts to use FU when none available (Count)
board.processor.cores.core.statFuBusy::SimdFloatReduceCmp            0      0.00%      4.54% # attempts to use FU when none available (Count)
board.processor.cores.core.statFuBusy::SimdAes            0      0.00%      4.54% # attempts to use FU when none available (Count)
board.processor.cores.core.statFuBusy::SimdAesMix            0      0.00%      4.54% # attempts to use FU when none available (Count)
board.processor.cores.core.statFuBusy::SimdSha1Hash            0      0.00%      4.54% # attempts to use FU when none available (Count)
board.processor.cores.core.statFuBusy::SimdSha1Hash2            0      0.00%      4.54% # attempts to use FU when none available (Count)
board.processor.cores.core.statFuBusy::SimdSha256Hash            0      0.00%      4.54% # attempts to use FU when none available (Count)
board.processor.cores.core.statFuBusy::SimdSha256Hash2            0      0.00%      4.54% # attempts to use FU when none available (Count)
board.processor.cores.core.statFuBusy::SimdShaSigma2            0      0.00%      4.54% # attempts to use FU when none available (Count)
board.processor.cores.core.statFuBusy::SimdShaSigma3            0      0.00%      4.54% # attempts to use FU when none available (Count)
board.processor.cores.core.statFuBusy::SimdPredAlu            0      0.00%      4.54% # attempts to use FU when none available (Count)
board.processor.cores.core.statFuBusy::Matrix            0      0.00%      4.54% # attempts to use FU when none available (Count)
board.processor.cores.core.statFuBusy::MatrixMov            0      0.00%      4.54% # attempts to use FU when none available (Count)
board.processor.cores.core.statFuBusy::MatrixOP            0      0.00%      4.54% # attempts to use FU when none available (Count)
board.processor.cores.core.statFuBusy::MemRead       390239     90.44%     94.98% # attempts to use FU when none available (Count)
board.processor.cores.core.statFuBusy::MemWrite        21661      5.02%    100.00% # attempts to use FU when none available (Count)
board.processor.cores.core.statFuBusy::FloatMemRead            0      0.00%    100.00% # attempts to use FU when none available (Count)
board.processor.cores.core.statFuBusy::FloatMemWrite            0      0.00%    100.00% # attempts to use FU when none available (Count)
board.processor.cores.core.statFuBusy::IprAccess            0      0.00%    100.00% # attempts to use FU when none available (Count)
board.processor.cores.core.statFuBusy::InstPrefetch            0      0.00%    100.00% # attempts to use FU when none available (Count)
board.processor.cores.core.statFuBusy::VectorUnitStrideLoad            0      0.00%    100.00% # attempts to use FU when none available (Count)
board.processor.cores.core.statFuBusy::VectorUnitStrideStore            0      0.00%    100.00% # attempts to use FU when none available (Count)
board.processor.cores.core.statFuBusy::VectorUnitStrideMaskLoad            0      0.00%    100.00% # attempts to use FU when none available (Count)
board.processor.cores.core.statFuBusy::VectorUnitStrideMaskStore            0      0.00%    100.00% # attempts to use FU when none available (Count)
board.processor.cores.core.statFuBusy::VectorStridedLoad            0      0.00%    100.00% # attempts to use FU when none available (Count)
board.processor.cores.core.statFuBusy::VectorStridedStore            0      0.00%    100.00% # attempts to use FU when none available (Count)
board.processor.cores.core.statFuBusy::VectorIndexedLoad            0      0.00%    100.00% # attempts to use FU when none available (Count)
board.processor.cores.core.statFuBusy::VectorIndexedStore            0      0.00%    100.00% # attempts to use FU when none available (Count)
board.processor.cores.core.statFuBusy::VectorUnitStrideFaultOnlyFirstLoad            0      0.00%    100.00% # attempts to use FU when none available (Count)
board.processor.cores.core.statFuBusy::VectorWholeRegisterLoad            0      0.00%    100.00% # attempts to use FU when none available (Count)
board.processor.cores.core.statFuBusy::VectorWholeRegisterStore            0      0.00%    100.00% # attempts to use FU when none available (Count)
board.processor.cores.core.statFuBusy::VectorIntegerArith            0      0.00%    100.00% # attempts to use FU when none available (Count)
board.processor.cores.core.statFuBusy::VectorFloatArith            0      0.00%    100.00% # attempts to use FU when none available (Count)
board.processor.cores.core.statFuBusy::VectorFloatConvert            0      0.00%    100.00% # attempts to use FU when none available (Count)
board.processor.cores.core.statFuBusy::VectorIntegerReduce            0      0.00%    100.00% # attempts to use FU when none available (Count)
board.processor.cores.core.statFuBusy::VectorFloatReduce            0      0.00%    100.00% # attempts to use FU when none available (Count)
board.processor.cores.core.statFuBusy::VectorMisc            0      0.00%    100.00% # attempts to use FU when none available (Count)
board.processor.cores.core.statFuBusy::VectorIntegerExtension            0      0.00%    100.00% # attempts to use FU when none available (Count)
board.processor.cores.core.statFuBusy::VectorConfig            0      0.00%    100.00% # attempts to use FU when none available (Count)
board.processor.cores.core.statIssuedInstType_0::No_OpClass        16404      0.15%      0.15% # Number of instructions issued per FU type, per thread (Count)
board.processor.cores.core.statIssuedInstType_0::IntAlu      6155669     57.05%     57.20% # Number of instructions issued per FU type, per thread (Count)
board.processor.cores.core.statIssuedInstType_0::IntMult       270372      2.51%     59.71% # Number of instructions issued per FU type, per thread (Count)
board.processor.cores.core.statIssuedInstType_0::IntDiv            4      0.00%     59.71% # Number of instructions issued per FU type, per thread (Count)
board.processor.cores.core.statIssuedInstType_0::FloatAdd            0      0.00%     59.71% # Number of instructions issued per FU type, per thread (Count)
board.processor.cores.core.statIssuedInstType_0::FloatCmp            0      0.00%     59.71% # Number of instructions issued per FU type, per thread (Count)
board.processor.cores.core.statIssuedInstType_0::FloatCvt            0      0.00%     59.71% # Number of instructions issued per FU type, per thread (Count)
board.processor.cores.core.statIssuedInstType_0::FloatMult            0      0.00%     59.71% # Number of instructions issued per FU type, per thread (Count)
board.processor.cores.core.statIssuedInstType_0::FloatMultAcc            0      0.00%     59.71% # Number of instructions issued per FU type, per thread (Count)
board.processor.cores.core.statIssuedInstType_0::FloatDiv            0      0.00%     59.71% # Number of instructions issued per FU type, per thread (Count)
board.processor.cores.core.statIssuedInstType_0::FloatMisc            3      0.00%     59.71% # Number of instructions issued per FU type, per thread (Count)
board.processor.cores.core.statIssuedInstType_0::FloatSqrt            0      0.00%     59.71% # Number of instructions issued per FU type, per thread (Count)
board.processor.cores.core.statIssuedInstType_0::SimdAdd            2      0.00%     59.71% # Number of instructions issued per FU type, per thread (Count)
board.processor.cores.core.statIssuedInstType_0::SimdAddAcc            0      0.00%     59.71% # Number of instructions issued per FU type, per thread (Count)
board.processor.cores.core.statIssuedInstType_0::SimdAlu            4      0.00%     59.71% # Number of instructions issued per FU type, per thread (Count)
board.processor.cores.core.statIssuedInstType_0::SimdCmp            5      0.00%     59.71% # Number of instructions issued per FU type, per thread (Count)
board.processor.cores.core.statIssuedInstType_0::SimdCvt            0      0.00%     59.71% # Number of instructions issued per FU type, per thread (Count)
board.processor.cores.core.statIssuedInstType_0::SimdMisc            5      0.00%     59.71% # Number of instructions issued per FU type, per thread (Count)
board.processor.cores.core.statIssuedInstType_0::SimdMult            0      0.00%     59.71% # Number of instructions issued per FU type, per thread (Count)
board.processor.cores.core.statIssuedInstType_0::SimdMultAcc            0      0.00%     59.71% # Number of instructions issued per FU type, per thread (Count)
board.processor.cores.core.statIssuedInstType_0::SimdMatMultAcc            0      0.00%     59.71% # Number of instructions issued per FU type, per thread (Count)
board.processor.cores.core.statIssuedInstType_0::SimdShift            0      0.00%     59.71% # Number of instructions issued per FU type, per thread (Count)
board.processor.cores.core.statIssuedInstType_0::SimdShiftAcc            0      0.00%     59.71% # Number of instructions issued per FU type, per thread (Count)
board.processor.cores.core.statIssuedInstType_0::SimdDiv            0      0.00%     59.71% # Number of instructions issued per FU type, per thread (Count)
board.processor.cores.core.statIssuedInstType_0::SimdSqrt            0      0.00%     59.71% # Number of instructions issued per FU type, per thread (Count)
board.processor.cores.core.statIssuedInstType_0::SimdFloatAdd            0      0.00%     59.71% # Number of instructions issued per FU type, per thread (Count)
board.processor.cores.core.statIssuedInstType_0::SimdFloatAlu            0      0.00%     59.71% # Number of instructions issued per FU type, per thread (Count)
board.processor.cores.core.statIssuedInstType_0::SimdFloatCmp            0      0.00%     59.71% # Number of instructions issued per FU type, per thread (Count)
board.processor.cores.core.statIssuedInstType_0::SimdFloatCvt            0      0.00%     59.71% # Number of instructions issued per FU type, per thread (Count)
board.processor.cores.core.statIssuedInstType_0::SimdFloatDiv            0      0.00%     59.71% # Number of instructions issued per FU type, per thread (Count)
board.processor.cores.core.statIssuedInstType_0::SimdFloatMisc            0      0.00%     59.71% # Number of instructions issued per FU type, per thread (Count)
board.processor.cores.core.statIssuedInstType_0::SimdFloatMult            0      0.00%     59.71% # Number of instructions issued per FU type, per thread (Count)
board.processor.cores.core.statIssuedInstType_0::SimdFloatMultAcc            0      0.00%     59.71% # Number of instructions issued per FU type, per thread (Count)
board.processor.cores.core.statIssuedInstType_0::SimdFloatMatMultAcc            0      0.00%     59.71% # Number of instructions issued per FU type, per thread (Count)
board.processor.cores.core.statIssuedInstType_0::SimdFloatSqrt            0      0.00%     59.71% # Number of instructions issued per FU type, per thread (Count)
board.processor.cores.core.statIssuedInstType_0::SimdReduceAdd            0      0.00%     59.71% # Number of instructions issued per FU type, per thread (Count)
board.processor.cores.core.statIssuedInstType_0::SimdReduceAlu            0      0.00%     59.71% # Number of instructions issued per FU type, per thread (Count)
board.processor.cores.core.statIssuedInstType_0::SimdReduceCmp            0      0.00%     59.71% # Number of instructions issued per FU type, per thread (Count)
board.processor.cores.core.statIssuedInstType_0::SimdFloatReduceAdd            0      0.00%     59.71% # Number of instructions issued per FU type, per thread (Count)
board.processor.cores.core.statIssuedInstType_0::SimdFloatReduceCmp            0      0.00%     59.71% # Number of instructions issued per FU type, per thread (Count)
board.processor.cores.core.statIssuedInstType_0::SimdAes            0      0.00%     59.71% # Number of instructions issued per FU type, per thread (Count)
board.processor.cores.core.statIssuedInstType_0::SimdAesMix            0      0.00%     59.71% # Number of instructions issued per FU type, per thread (Count)
board.processor.cores.core.statIssuedInstType_0::SimdSha1Hash            0      0.00%     59.71% # Number of instructions issued per FU type, per thread (Count)
board.processor.cores.core.statIssuedInstType_0::SimdSha1Hash2            0      0.00%     59.71% # Number of instructions issued per FU type, per thread (Count)
board.processor.cores.core.statIssuedInstType_0::SimdSha256Hash            0      0.00%     59.71% # Number of instructions issued per FU type, per thread (Count)
board.processor.cores.core.statIssuedInstType_0::SimdSha256Hash2            0      0.00%     59.71% # Number of instructions issued per FU type, per thread (Count)
board.processor.cores.core.statIssuedInstType_0::SimdShaSigma2            0      0.00%     59.71% # Number of instructions issued per FU type, per thread (Count)
board.processor.cores.core.statIssuedInstType_0::SimdShaSigma3            0      0.00%     59.71% # Number of instructions issued per FU type, per thread (Count)
board.processor.cores.core.statIssuedInstType_0::SimdPredAlu            0      0.00%     59.71% # Number of instructions issued per FU type, per thread (Count)
board.processor.cores.core.statIssuedInstType_0::Matrix            0      0.00%     59.71% # Number of instructions issued per FU type, per thread (Count)
board.processor.cores.core.statIssuedInstType_0::MatrixMov            0      0.00%     59.71% # Number of instructions issued per FU type, per thread (Count)
board.processor.cores.core.statIssuedInstType_0::MatrixOP            0      0.00%     59.71% # Number of instructions issued per FU type, per thread (Count)
board.processor.cores.core.statIssuedInstType_0::MemRead      3652206     33.85%     93.56% # Number of instructions issued per FU type, per thread (Count)
board.processor.cores.core.statIssuedInstType_0::MemWrite       695012      6.44%    100.00% # Number of instructions issued per FU type, per thread (Count)
board.processor.cores.core.statIssuedInstType_0::FloatMemRead            0      0.00%    100.00% # Number of instructions issued per FU type, per thread (Count)
board.processor.cores.core.statIssuedInstType_0::FloatMemWrite            0      0.00%    100.00% # Number of instructions issued per FU type, per thread (Count)
board.processor.cores.core.statIssuedInstType_0::IprAccess            0      0.00%    100.00% # Number of instructions issued per FU type, per thread (Count)
board.processor.cores.core.statIssuedInstType_0::InstPrefetch            0      0.00%    100.00% # Number of instructions issued per FU type, per thread (Count)
board.processor.cores.core.statIssuedInstType_0::VectorUnitStrideLoad            0      0.00%    100.00% # Number of instructions issued per FU type, per thread (Count)
board.processor.cores.core.statIssuedInstType_0::VectorUnitStrideStore            0      0.00%    100.00% # Number of instructions issued per FU type, per thread (Count)
board.processor.cores.core.statIssuedInstType_0::VectorUnitStrideMaskLoad            0      0.00%    100.00% # Number of instructions issued per FU type, per thread (Count)
board.processor.cores.core.statIssuedInstType_0::VectorUnitStrideMaskStore            0      0.00%    100.00% # Number of instructions issued per FU type, per thread (Count)
board.processor.cores.core.statIssuedInstType_0::VectorStridedLoad            0      0.00%    100.00% # Number of instructions issued per FU type, per thread (Count)
board.processor.cores.core.statIssuedInstType_0::VectorStridedStore            0      0.00%    100.00% # Number of instructions issued per FU type, per thread (Count)
board.processor.cores.core.statIssuedInstType_0::VectorIndexedLoad            0      0.00%    100.00% # Number of instructions issued per FU type, per thread (Count)
board.processor.cores.core.statIssuedInstType_0::VectorIndexedStore            0      0.00%    100.00% # Number of instructions issued per FU type, per thread (Count)
board.processor.cores.core.statIssuedInstType_0::VectorUnitStrideFaultOnlyFirstLoad            0      0.00%    100.00% # Number of instructions issued per FU type, per thread (Count)
board.processor.cores.core.statIssuedInstType_0::VectorWholeRegisterLoad            0      0.00%    100.00% # Number of instructions issued per FU type, per thread (Count)
board.processor.cores.core.statIssuedInstType_0::VectorWholeRegisterStore            0      0.00%    100.00% # Number of instructions issued per FU type, per thread (Count)
board.processor.cores.core.statIssuedInstType_0::VectorIntegerArith            0      0.00%    100.00% # Number of instructions issued per FU type, per thread (Count)
board.processor.cores.core.statIssuedInstType_0::VectorFloatArith            0      0.00%    100.00% # Number of instructions issued per FU type, per thread (Count)
board.processor.cores.core.statIssuedInstType_0::VectorFloatConvert            0      0.00%    100.00% # Number of instructions issued per FU type, per thread (Count)
board.processor.cores.core.statIssuedInstType_0::VectorIntegerReduce            0      0.00%    100.00% # Number of instructions issued per FU type, per thread (Count)
board.processor.cores.core.statIssuedInstType_0::VectorFloatReduce            0      0.00%    100.00% # Number of instructions issued per FU type, per thread (Count)
board.processor.cores.core.statIssuedInstType_0::VectorMisc            0      0.00%    100.00% # Number of instructions issued per FU type, per thread (Count)
board.processor.cores.core.statIssuedInstType_0::VectorIntegerExtension            0      0.00%    100.00% # Number of instructions issued per FU type, per thread (Count)
board.processor.cores.core.statIssuedInstType_0::VectorConfig            0      0.00%    100.00% # Number of instructions issued per FU type, per thread (Count)
board.processor.cores.core.statIssuedInstType_0::total     10789686                       # Number of instructions issued per FU type, per thread (Count)
board.processor.cores.core.issueRate         2.769909                       # Inst issue rate ((Count/Cycle))
board.processor.cores.core.fuBusy              431503                       # FU busy when requested (Count)
board.processor.cores.core.fuBusyRate        0.039992                       # FU busy rate (busy events/executed inst) ((Count/Count))
board.processor.cores.core.intInstQueueReads     25882417                       # Number of integer instruction queue reads (Count)
board.processor.cores.core.intInstQueueWrites     11417959                       # Number of integer instruction queue writes (Count)
board.processor.cores.core.intInstQueueWakeupAccesses     10766079                       # Number of integer instruction queue wakeup accesses (Count)
board.processor.cores.core.fpInstQueueReads            0                       # Number of floating instruction queue reads (Count)
[...]
board.processor.cores.l2.ReadSharedReq.avgMshrMissLatency::processor.cores.core.data 63977.915659                       # average ReadSharedReq mshr miss latency ((Tick/Count))
board.processor.cores.l2.ReadSharedReq.avgMshrMissLatency::processor.cores.l1d.prefetcher 72835.091305                       # average ReadSharedReq mshr miss latency ((Tick/Count))
board.processor.cores.l2.ReadSharedReq.avgMshrMissLatency::total 70965.203376                       # average ReadSharedReq mshr miss latency ((Tick/Count))
board.processor.cores.l2.WritebackClean.hits::writebacks        23026                       # number of WritebackClean hits (Count)
board.processor.cores.l2.WritebackClean.hits::total        23026                       # number of WritebackClean hits (Count)
board.processor.cores.l2.WritebackClean.accesses::writebacks        23026                       # number of WritebackClean accesses(hits+misses) (Count)
board.processor.cores.l2.WritebackClean.accesses::total        23026                       # number of WritebackClean accesses(hits+misses) (Count)
board.processor.cores.l2.WritebackDirty.hits::writebacks       250050                       # number of WritebackDirty hits (Count)
board.processor.cores.l2.WritebackDirty.hits::total       250050                       # number of WritebackDirty hits (Count)
board.processor.cores.l2.WritebackDirty.accesses::writebacks       250050                       # number of WritebackDirty accesses(hits+misses) (Count)
board.processor.cores.l2.WritebackDirty.accesses::total       250050                       # number of WritebackDirty accesses(hits+misses) (Count)
board.processor.cores.l2.power_state.pwrStateResidencyTicks::UNDEFINED   3895321000                       # Cumulative time (in ticks) in various power states (Tick)
board.processor.cores.l2.prefetcher.demandMshrMisses        50426                       # demands not covered by prefetchs (Count)
board.processor.cores.l2.prefetcher.pfIssued        15365                       # number of hwpf issued (Count)
board.processor.cores.l2.prefetcher.pfUnused          982                       # number of HardPF blocks evicted w/o reference (Count)
board.processor.cores.l2.prefetcher.pfUseful         1467                       # number of useful prefetch (Count)
board.processor.cores.l2.prefetcher.pfUsefulButMiss            0                       # number of hit on prefetch but cache block is not in an usable state (Count)
board.processor.cores.l2.prefetcher.accuracy     0.095477                       # accuracy of the prefetcher (Count)
board.processor.cores.l2.prefetcher.coverage     0.028270                       # coverage brought by this prefetcher (Count)
board.processor.cores.l2.prefetcher.pfHitInCache        10585                       # number of prefetches hitting in cache (Count)
board.processor.cores.l2.prefetcher.pfHitInMSHR          385                       # number of prefetches hitting in a MSHR (Count)
board.processor.cores.l2.prefetcher.pfHitInWB          240                       # number of prefetches hit in the Write Buffer (Count)
board.processor.cores.l2.prefetcher.pfLate        11210                       # number of late prefetches (hitting in cache, MSHR or WB) (Count)
board.processor.cores.l2.prefetcher.pfIdentified        18711                       # number of prefetch candidates identified (Count)
board.processor.cores.l2.prefetcher.pfBufferHit         2206                       # number of redundant prefetches already in prefetch queue (Count)
board.processor.cores.l2.prefetcher.pfInCache            0                       # number of redundant prefetches already in cache/mshr dropped (Count)
board.processor.cores.l2.prefetcher.pfRemovedDemand          429                       # number of prefetches dropped due to a demand for the same address (Count)
board.processor.cores.l2.prefetcher.pfRemovedFull            0                       # number of prefetches dropped due to prefetch queue size (Count)
board.processor.cores.l2.prefetcher.pfSpanPage          589                       # number of prefetches that crossed the page (Count)
board.processor.cores.l2.prefetcher.pfUsefulSpanPage            0                       # number of prefetches that is useful and crossed the page (Count)
board.processor.cores.l2.prefetcher.power_state.pwrStateResidencyTicks::UNDEFINED   3895321000                       # Cumulative time (in ticks) in various power states (Tick)
board.processor.cores.l2.tags.tagsInUse    981.504511                       # Average ticks per tags in use ((Tick/Count))
board.processor.cores.l2.tags.totalRefs        815845                       # Total number of references to valid blocks. (Count)
board.processor.cores.l2.tags.sampledRefs        70064                       # Sample count of references to valid blocks. (Count)
board.processor.cores.l2.tags.avgRefs       11.644282                       # Average number of references to valid blocks. ((Count/Count))
board.processor.cores.l2.tags.warmupTick        77000                       # The tick when the warmup percentage was hit. (Tick)
board.processor.cores.l2.tags.occupancies::writebacks   297.185628                       # Average occupied blocks per tick, per requestor ((Count/Tick))
board.processor.cores.l2.tags.occupancies::processor.cores.core.inst    43.440601                       # Average occupied blocks per tick, per requestor ((Count/Tick))
board.processor.cores.l2.tags.occupancies::processor.cores.core.data    96.524204                       # Average occupied blocks per tick, per requestor ((Count/Tick))
board.processor.cores.l2.tags.occupancies::processor.cores.l1d.prefetcher   323.750385                       # Average occupied blocks per tick, per requestor ((Count/Tick))
board.processor.cores.l2.tags.occupancies::processor.cores.l2.prefetcher   220.603693                       # Average occupied blocks per tick, per requestor ((Count/Tick))
board.processor.cores.l2.tags.avgOccs::writebacks     0.290220                       # Average percentage of cache occupancy ((Ratio/Tick))
board.processor.cores.l2.tags.avgOccs::processor.cores.core.inst     0.042422                       # Average percentage of cache occupancy ((Ratio/Tick))
board.processor.cores.l2.tags.avgOccs::processor.cores.core.data     0.094262                       # Average percentage of cache occupancy ((Ratio/Tick))
board.processor.cores.l2.tags.avgOccs::processor.cores.l1d.prefetcher     0.316162                       # Average percentage of cache occupancy ((Ratio/Tick))
board.processor.cores.l2.tags.avgOccs::processor.cores.l2.prefetcher     0.215433                       # Average percentage of cache occupancy ((Ratio/Tick))
board.processor.cores.l2.tags.avgOccs::total     0.958500                       # Average percentage of cache occupancy ((Ratio/Tick))
board.processor.cores.l2.tags.occupanciesTaskId::1022          540                       # Occupied blocks per task id (Count)
board.processor.cores.l2.tags.occupanciesTaskId::1024          484                       # Occupied blocks per task id (Count)
board.processor.cores.l2.tags.ageTaskId_1022::0            6                       # Occupied blocks per task id, per block age (Count)
board.processor.cores.l2.tags.ageTaskId_1022::1            3                       # Occupied blocks per task id, per block age (Count)
board.processor.cores.l2.tags.ageTaskId_1022::2           65                       # Occupied blocks per task id, per block age (Count)
board.processor.cores.l2.tags.ageTaskId_1022::3          466                       # Occupied blocks per task id, per block age (Count)
board.processor.cores.l2.tags.ageTaskId_1024::0          285                       # Occupied blocks per task id, per block age (Count)
board.processor.cores.l2.tags.ageTaskId_1024::1           17                       # Occupied blocks per task id, per block age (Count)
board.processor.cores.l2.tags.ageTaskId_1024::2           56                       # Occupied blocks per task id, per block age (Count)
board.processor.cores.l2.tags.ageTaskId_1024::3          126                       # Occupied blocks per task id, per block age (Count)
board.processor.cores.l2.tags.ratioOccsTaskId::1022     0.527344                       # Ratio of occupied blocks and all blocks, per task id (Ratio)
board.processor.cores.l2.tags.ratioOccsTaskId::1024     0.472656                       # Ratio of occupied blocks and all blocks, per task id (Ratio)
board.processor.cores.l2.tags.tagAccesses       915333                       # Number of tag accesses (Count)
board.processor.cores.l2.tags.dataAccesses       915333                       # Number of data accesses (Count)
board.processor.cores.l2.tags.power_state.pwrStateResidencyTicks::UNDEFINED   3895321000                       # Cumulative time (in ticks) in various power states (Tick)
board.processor.cores.l2_bus.transDist::ReadResp       380296                       # Transaction distribution (Count)
board.processor.cores.l2_bus.transDist::WritebackDirty       254687                       # Transaction distribution (Count)
board.processor.cores.l2_bus.transDist::WritebackClean        23027                       # Transaction distribution (Count)
board.processor.cores.l2_bus.transDist::CleanEvict       213709                       # Transaction distribution (Count)
board.processor.cores.l2_bus.transDist::HardPFReq         6404                       # Transaction distribution (Count)
board.processor.cores.l2_bus.transDist::ReadExReq        42319                       # Transaction distribution (Count)
board.processor.cores.l2_bus.transDist::ReadExResp        42319                       # Transaction distribution (Count)
board.processor.cores.l2_bus.transDist::ReadSharedReq       380297                       # Transaction distribution (Count)
board.processor.cores.l2_bus.transDist::InvalidateReq          148                       # Transaction distribution (Count)
board.processor.cores.l2_bus.transDist::InvalidateResp          148                       # Transaction distribution (Count)
board.processor.cores.l2_bus.pktCount_board.processor.cores.l1i.mem_side_port::board.processor.cores.l2.cpu_side_port        69338                       # Packet count per connected requestor and responder (Count)
board.processor.cores.l2_bus.pktCount_board.processor.cores.l1d.mem_side_port::board.processor.cores.l2.cpu_side_port      1198696                       # Packet count per connected requestor and responder (Count)
board.processor.cores.l2_bus.pktCount::total      1268034                       # Packet count per connected requestor and responder (Count)
board.processor.cores.l2_bus.pktSize_board.processor.cores.l1i.mem_side_port::board.processor.cores.l2.cpu_side_port      1477824                       # Cumulative packet size per connected requestor and responder (Byte)
board.processor.cores.l2_bus.pktSize_board.processor.cores.l1d.mem_side_port::board.processor.cores.l2.cpu_side_port     20784320                       # Cumulative packet size per connected requestor and responder (Byte)
board.processor.cores.l2_bus.pktSize::total     22262144                       # Cumulative packet size per connected requestor and responder (Byte)
board.processor.cores.l2_bus.snoops             75320                       # Total snoops (Count)
board.processor.cores.l2_bus.snoopTraffic       148384                       # Total snoop traffic (Byte)
board.processor.cores.l2_bus.snoopFanout::samples       498084                       # Request fanout histogram (Count)
board.processor.cores.l2_bus.snoopFanout::mean     0.096799                       # Request fanout histogram (Count)
board.processor.cores.l2_bus.snoopFanout::stdev     0.295684                       # Request fanout histogram (Count)
board.processor.cores.l2_bus.snoopFanout::underflows            0      0.00%      0.00% # Request fanout histogram (Count)
board.processor.cores.l2_bus.snoopFanout::0       449870     90.32%     90.32% # Request fanout histogram (Count)
board.processor.cores.l2_bus.snoopFanout::1        48214      9.68%    100.00% # Request fanout histogram (Count)
board.processor.cores.l2_bus.snoopFanout::2            0      0.00%    100.00% # Request fanout histogram (Count)
board.processor.cores.l2_bus.snoopFanout::overflows            0      0.00%    100.00% # Request fanout histogram (Count)
board.processor.cores.l2_bus.snoopFanout::min_value            0                       # Request fanout histogram (Count)
board.processor.cores.l2_bus.snoopFanout::max_value            1                       # Request fanout histogram (Count)
board.processor.cores.l2_bus.snoopFanout::total       498084                       # Request fanout histogram (Count)
board.processor.cores.l2_bus.power_state.pwrStateResidencyTicks::UNDEFINED   3895321000                       # Cumulative time (in ticks) in various power states (Tick)
board.processor.cores.l2_bus.reqLayer0.occupancy   1128950323                       # Layer occupancy (ticks) (Tick)
board.processor.cores.l2_bus.reqLayer0.utilization          0.3                       # Layer utilization (Ratio)
board.processor.cores.l2_bus.respLayer0.occupancy     48392915                       # Layer occupancy (ticks) (Tick)
board.processor.cores.l2_bus.respLayer0.utilization          0.0                       # Layer utilization (Ratio)
board.processor.cores.l2_bus.respLayer1.occupancy    799559508                       # Layer occupancy (ticks) (Tick)
board.processor.cores.l2_bus.respLayer1.utilization          0.2                       # Layer utilization (Ratio)
board.processor.cores.l2_bus.snoop_filter.totRequests       845271                       # Total number of requests made to the snoop filter. (Count)
board.processor.cores.l2_bus.snoop_filter.hitSingleRequests       422507                       # Number of requests hitting in the snoop filter with a single holder of the requested data. (Count)
board.processor.cores.l2_bus.snoop_filter.hitMultiRequests            2                       # Number of requests hitting in the snoop filter with multiple (>1) holders of the requested data. (Count)
board.processor.cores.l2_bus.snoop_filter.totSnoops        48212                       # Total number of snoops made to the snoop filter. (Count)
board.processor.cores.l2_bus.snoop_filter.hitSingleSnoops        48212                       # Number of snoops hitting in the snoop filter with a single holder of the requested data. (Count)
board.processor.cores.l2_bus.snoop_filter.hitMultiSnoops            0                       # Number of snoops hitting in the snoop filter with multiple (>1) holders of the requested data. (Count)
board.processor.cores.mmu_bus.snoops                0                       # Total snoops (Count)
board.processor.cores.mmu_bus.snoopTraffic            0                       # Total snoop traffic (Byte)
board.processor.cores.mmu_bus.snoopFanout::samples            0                       # Request fanout histogram (Count)
board.processor.cores.mmu_bus.snoopFanout::mean          nan                       # Request fanout histogram (Count)
board.processor.cores.mmu_bus.snoopFanout::stdev          nan                       # Request fanout histogram (Count)
board.processor.cores.mmu_bus.snoopFanout::underflows            0                       # Request fanout histogram (Count)
board.processor.cores.mmu_bus.snoopFanout::0            0                       # Request fanout histogram (Count)
board.processor.cores.mmu_bus.snoopFanout::overflows            0                       # Request fanout histogram (Count)
board.processor.cores.mmu_bus.snoopFanout::min_value            0                       # Request fanout histogram (Count)
board.processor.cores.mmu_bus.snoopFanout::max_value            0                       # Request fanout histogram (Count)
board.processor.cores.mmu_bus.snoopFanout::total            0                       # Request fanout histogram (Count)
board.processor.cores.mmu_bus.power_state.pwrStateResidencyTicks::UNDEFINED   3895321000                       # Cumulative time (in ticks) in various power states (Tick)
board.processor.cores.mmu_bus.snoop_filter.totRequests            0                       # Total number of requests made to the snoop filter. (Count)
board.processor.cores.mmu_bus.snoop_filter.hitSingleRequests            0                       # Number of requests hitting in the snoop filter with a single holder of the requested data. (Count)
board.processor.cores.mmu_bus.snoop_filter.hitMultiRequests            0                       # Number of requests hitting in the snoop filter with multiple (>1) holders of the requested data. (Count)
board.processor.cores.mmu_bus.snoop_filter.totSnoops            0                       # Total number of snoops made to the snoop filter. (Count)
board.processor.cores.mmu_bus.snoop_filter.hitSingleSnoops            0                       # Number of snoops hitting in the snoop filter with a single holder of the requested data. (Count)
board.processor.cores.mmu_bus.snoop_filter.hitMultiSnoops            0                       # Number of snoops hitting in the snoop filter with multiple (>1) holders of the requested data. (Count)
board.processor.cores.mmu_cache.blockedCycles::no_mshrs            0                       # number of cycles access was blocked (Cycle)
board.processor.cores.mmu_cache.blockedCycles::no_targets            0                       # number of cycles access was blocked (Cycle)
board.processor.cores.mmu_cache.blockedCauses::no_mshrs            0                       # number of times access was blocked (Count)
board.processor.cores.mmu_cache.blockedCauses::no_targets            0                       # number of times access was blocked (Count)
board.processor.cores.mmu_cache.avgBlocked::no_mshrs          nan                       # average number of cycles each access was blocked ((Cycle/Count))
board.processor.cores.mmu_cache.avgBlocked::no_targets          nan                       # average number of cycles each access was blocked ((Cycle/Count))
board.processor.cores.mmu_cache.replacements            0                       # number of replacements (Count)
board.processor.cores.mmu_cache.power_state.pwrStateResidencyTicks::UNDEFINED   3895321000                       # Cumulative time (in ticks) in various power states (Tick)
board.processor.cores.mmu_cache.tags.tagsInUse            0                       # Average ticks per tags in use ((Tick/Count))
board.processor.cores.mmu_cache.tags.totalRefs            0                       # Total number of references to valid blocks. (Count)
board.processor.cores.mmu_cache.tags.sampledRefs            0                       # Sample count of references to valid blocks. (Count)
board.processor.cores.mmu_cache.tags.avgRefs          nan                       # Average number of references to valid blocks. ((Count/Count))
board.processor.cores.mmu_cache.tags.warmupTick            0                       # The tick when the warmup percentage was hit. (Tick)
board.processor.cores.mmu_cache.tags.tagAccesses            0                       # Number of tag accesses (Count)
board.processor.cores.mmu_cache.tags.dataAccesses            0                       # Number of data accesses (Count)
board.processor.cores.mmu_cache.tags.power_state.pwrStateResidencyTicks::UNDEFINED   3895321000                       # Cumulative time (in ticks) in various power states (Tick)
board.workload.inst.arm                             0                       # number of arm instructions executed (Count)
board.workload.inst.quiesce                         0                       # number of quiesce instructions executed (Count)

---------- End Simulation Statistics   ----------
